/*--------------------------------*- C++ -*----------------------------------*\
  =========                 |
  \\      /  F ield         | OpenFOAM: The Open Source CFD Toolbox
   \\    /   O peration     | Website:  https://openfoam.org
    \\  /    A nd           | Version:  7
     \\/     M anipulation  |
\*---------------------------------------------------------------------------*/
FoamFile
{
    version     2.0;
    format      ascii;
    class       polyBoundaryMesh;
    location    "constant/polyMesh";
    object      boundary;
}
// * * * * * * * * * * * * * * * * * * * * * * * * * * * * * * * * * * * * * //

13
(
    yMinusWall
    {
        type            patch;
        nFaces          0;
        startFace       36694;
    }
    yPlusWall
    {
        type            patch;
        nFaces          0;
        startFace       36694;
    }
    inlet
    {
        type            patch;
        nFaces          0;
        startFace       36694;
    }
    outlet
    {
        type            patch;
        nFaces          57;
        startFace       36694;
    }
    bottomWall
    {
        type            wall;
        inGroups        List<word> 1(wall);
        nFaces          0;
        startFace       36751;
    }
    topWall
    {
        type            patch;
        nFaces          60;
        startFace       36751;
    }
    greenhouse
    {
        type            wall;
        inGroups        List<word> 1(wall);
        nFaces          0;
        startFace       36811;
    }
    procBoundary23to3
    {
        type            processor;
        inGroups        List<word> 1(processor);
        nFaces          414;
        startFace       36811;
        matchTolerance  0.0001;
        transform       unknown;
        myProcNo        23;
        neighbProcNo    3;
    }
    procBoundary23to7
    {
        type            processor;
        inGroups        List<word> 1(processor);
        nFaces          804;
        startFace       37225;
        matchTolerance  0.0001;
        transform       unknown;
        myProcNo        23;
        neighbProcNo    7;
    }
    procBoundary23to18
    {
        type            processor;
        inGroups        List<word> 1(processor);
        nFaces          317;
        startFace       38029;
        matchTolerance  0.0001;
        transform       unknown;
        myProcNo        23;
        neighbProcNo    18;
    }
    procBoundary23to19
    {
        type            processor;
        inGroups        List<word> 1(processor);
        nFaces          871;
        startFace       38346;
        matchTolerance  0.0001;
        transform       unknown;
        myProcNo        23;
        neighbProcNo    19;
    }
    procBoundary23to22
    {
        type            processor;
        inGroups        List<word> 1(processor);
        nFaces          398;
        startFace       39217;
        matchTolerance  0.0001;
        transform       unknown;
        myProcNo        23;
        neighbProcNo    22;
    }
    procBoundary23to27
    {
        type            processor;
        inGroups        List<word> 1(processor);
        nFaces          1331;
        startFace       39615;
        matchTolerance  0.0001;
        transform       unknown;
        myProcNo        23;
        neighbProcNo    27;
    }
)

// ************************************************************************* //
