/*--------------------------------*- C++ -*----------------------------------*\
  =========                 |
  \\      /  F ield         | OpenFOAM: The Open Source CFD Toolbox
   \\    /   O peration     | Website:  https://openfoam.org
    \\  /    A nd           | Version:  7
     \\/     M anipulation  |
\*---------------------------------------------------------------------------*/
FoamFile
{
    version     2.0;
    format      ascii;
    class       polyBoundaryMesh;
    location    "constant/polyMesh";
    object      boundary;
}
// * * * * * * * * * * * * * * * * * * * * * * * * * * * * * * * * * * * * * //

14
(
    yMinusWall
    {
        type            patch;
        nFaces          0;
        startFace       37064;
    }
    yPlusWall
    {
        type            patch;
        nFaces          2;
        startFace       37064;
    }
    inlet
    {
        type            patch;
        nFaces          0;
        startFace       37066;
    }
    outlet
    {
        type            patch;
        nFaces          0;
        startFace       37066;
    }
    bottomWall
    {
        type            wall;
        inGroups        List<word> 1(wall);
        nFaces          1086;
        startFace       37066;
    }
    topWall
    {
        type            patch;
        nFaces          0;
        startFace       38152;
    }
    greenhouse
    {
        type            wall;
        inGroups        List<word> 1(wall);
        nFaces          981;
        startFace       38152;
    }
    procBoundary14to10
    {
        type            processor;
        inGroups        List<word> 1(processor);
        nFaces          473;
        startFace       39133;
        matchTolerance  0.0001;
        transform       unknown;
        myProcNo        14;
        neighbProcNo    10;
    }
    procBoundary14to11
    {
        type            processor;
        inGroups        List<word> 1(processor);
        nFaces          201;
        startFace       39606;
        matchTolerance  0.0001;
        transform       unknown;
        myProcNo        14;
        neighbProcNo    11;
    }
    procBoundary14to13
    {
        type            processor;
        inGroups        List<word> 1(processor);
        nFaces          647;
        startFace       39807;
        matchTolerance  0.0001;
        transform       unknown;
        myProcNo        14;
        neighbProcNo    13;
    }
    procBoundary14to15
    {
        type            processor;
        inGroups        List<word> 1(processor);
        nFaces          240;
        startFace       40454;
        matchTolerance  0.0001;
        transform       unknown;
        myProcNo        14;
        neighbProcNo    15;
    }
    procBoundary14to26
    {
        type            processor;
        inGroups        List<word> 1(processor);
        nFaces          15;
        startFace       40694;
        matchTolerance  0.0001;
        transform       unknown;
        myProcNo        14;
        neighbProcNo    26;
    }
    procBoundary14to29
    {
        type            processor;
        inGroups        List<word> 1(processor);
        nFaces          32;
        startFace       40709;
        matchTolerance  0.0001;
        transform       unknown;
        myProcNo        14;
        neighbProcNo    29;
    }
    procBoundary14to30
    {
        type            processor;
        inGroups        List<word> 1(processor);
        nFaces          810;
        startFace       40741;
        matchTolerance  0.0001;
        transform       unknown;
        myProcNo        14;
        neighbProcNo    30;
    }
)

// ************************************************************************* //
