/*--------------------------------*- C++ -*----------------------------------*\
  =========                 |
  \\      /  F ield         | OpenFOAM: The Open Source CFD Toolbox
   \\    /   O peration     | Website:  https://openfoam.org
    \\  /    A nd           | Version:  7
     \\/     M anipulation  |
\*---------------------------------------------------------------------------*/
FoamFile
{
    version     2.0;
    format      ascii;
    class       polyBoundaryMesh;
    location    "constant/polyMesh";
    object      boundary;
}
// * * * * * * * * * * * * * * * * * * * * * * * * * * * * * * * * * * * * * //

12
(
    yMinusWall
    {
        type            patch;
        nFaces          0;
        startFace       36825;
    }
    yPlusWall
    {
        type            patch;
        nFaces          80;
        startFace       36825;
    }
    inlet
    {
        type            patch;
        nFaces          0;
        startFace       36905;
    }
    outlet
    {
        type            patch;
        nFaces          76;
        startFace       36905;
    }
    bottomWall
    {
        type            wall;
        inGroups        List<word> 1(wall);
        nFaces          1174;
        startFace       36981;
    }
    topWall
    {
        type            patch;
        nFaces          0;
        startFace       38155;
    }
    greenhouse
    {
        type            wall;
        inGroups        List<word> 1(wall);
        nFaces          0;
        startFace       38155;
    }
    procBoundary15to11
    {
        type            processor;
        inGroups        List<word> 1(processor);
        nFaces          431;
        startFace       38155;
        matchTolerance  0.0001;
        transform       unknown;
        myProcNo        15;
        neighbProcNo    11;
    }
    procBoundary15to14
    {
        type            processor;
        inGroups        List<word> 1(processor);
        nFaces          240;
        startFace       38586;
        matchTolerance  0.0001;
        transform       unknown;
        myProcNo        15;
        neighbProcNo    14;
    }
    procBoundary15to27
    {
        type            processor;
        inGroups        List<word> 1(processor);
        nFaces          441;
        startFace       38826;
        matchTolerance  0.0001;
        transform       unknown;
        myProcNo        15;
        neighbProcNo    27;
    }
    procBoundary15to30
    {
        type            processor;
        inGroups        List<word> 1(processor);
        nFaces          503;
        startFace       39267;
        matchTolerance  0.0001;
        transform       unknown;
        myProcNo        15;
        neighbProcNo    30;
    }
    procBoundary15to31
    {
        type            processor;
        inGroups        List<word> 1(processor);
        nFaces          1042;
        startFace       39770;
        matchTolerance  0.0001;
        transform       unknown;
        myProcNo        15;
        neighbProcNo    31;
    }
)

// ************************************************************************* //
