/*--------------------------------*- C++ -*----------------------------------*\
  =========                 |
  \\      /  F ield         | OpenFOAM: The Open Source CFD Toolbox
   \\    /   O peration     | Website:  https://openfoam.org
    \\  /    A nd           | Version:  7
     \\/     M anipulation  |
\*---------------------------------------------------------------------------*/
FoamFile
{
    version     2.0;
    format      ascii;
    class       polyBoundaryMesh;
    location    "constant/polyMesh";
    object      boundary;
}
// * * * * * * * * * * * * * * * * * * * * * * * * * * * * * * * * * * * * * //

10
(
    yMinusWall
    {
        type            patch;
        nFaces          340;
        startFace       36860;
    }
    yPlusWall
    {
        type            patch;
        nFaces          0;
        startFace       37200;
    }
    inlet
    {
        type            patch;
        nFaces          0;
        startFace       37200;
    }
    outlet
    {
        type            patch;
        nFaces          323;
        startFace       37200;
    }
    bottomWall
    {
        type            wall;
        inGroups        List<word> 1(wall);
        nFaces          0;
        startFace       37523;
    }
    topWall
    {
        type            patch;
        nFaces          380;
        startFace       37523;
    }
    greenhouse
    {
        type            wall;
        inGroups        List<word> 1(wall);
        nFaces          0;
        startFace       37903;
    }
    procBoundary19to3
    {
        type            processor;
        inGroups        List<word> 1(processor);
        nFaces          1047;
        startFace       37903;
        matchTolerance  0.0001;
        transform       unknown;
        myProcNo        19;
        neighbProcNo    3;
    }
    procBoundary19to18
    {
        type            processor;
        inGroups        List<word> 1(processor);
        nFaces          743;
        startFace       38950;
        matchTolerance  0.0001;
        transform       unknown;
        myProcNo        19;
        neighbProcNo    18;
    }
    procBoundary19to23
    {
        type            processor;
        inGroups        List<word> 1(processor);
        nFaces          871;
        startFace       39693;
        matchTolerance  0.0001;
        transform       unknown;
        myProcNo        19;
        neighbProcNo    23;
    }
)

// ************************************************************************* //
