/*--------------------------------*- C++ -*----------------------------------*\
  =========                 |
  \\      /  F ield         | OpenFOAM: The Open Source CFD Toolbox
   \\    /   O peration     | Website:  https://openfoam.org
    \\  /    A nd           | Version:  7
     \\/     M anipulation  |
\*---------------------------------------------------------------------------*/
FoamFile
{
    version     2.0;
    format      ascii;
    class       polyBoundaryMesh;
    location    "constant/polyMesh";
    object      boundary;
}
// * * * * * * * * * * * * * * * * * * * * * * * * * * * * * * * * * * * * * //

15
(
    yMinusWall
    {
        type            patch;
        nFaces          0;
        startFace       36814;
    }
    yPlusWall
    {
        type            patch;
        nFaces          0;
        startFace       36814;
    }
    inlet
    {
        type            patch;
        nFaces          0;
        startFace       36814;
    }
    outlet
    {
        type            patch;
        nFaces          6;
        startFace       36814;
    }
    bottomWall
    {
        type            wall;
        inGroups        List<word> 1(wall);
        nFaces          993;
        startFace       36820;
    }
    topWall
    {
        type            patch;
        nFaces          0;
        startFace       37813;
    }
    greenhouse
    {
        type            wall;
        inGroups        List<word> 1(wall);
        nFaces          0;
        startFace       37813;
    }
    procBoundary7to2
    {
        type            processor;
        inGroups        List<word> 1(processor);
        nFaces          201;
        startFace       37813;
        matchTolerance  0.0001;
        transform       unknown;
        myProcNo        7;
        neighbProcNo    2;
    }
    procBoundary7to3
    {
        type            processor;
        inGroups        List<word> 1(processor);
        nFaces          436;
        startFace       38014;
        matchTolerance  0.0001;
        transform       unknown;
        myProcNo        7;
        neighbProcNo    3;
    }
    procBoundary7to6
    {
        type            processor;
        inGroups        List<word> 1(processor);
        nFaces          342;
        startFace       38450;
        matchTolerance  0.0001;
        transform       unknown;
        myProcNo        7;
        neighbProcNo    6;
    }
    procBoundary7to11
    {
        type            processor;
        inGroups        List<word> 1(processor);
        nFaces          736;
        startFace       38792;
        matchTolerance  0.0001;
        transform       unknown;
        myProcNo        7;
        neighbProcNo    11;
    }
    procBoundary7to18
    {
        type            processor;
        inGroups        List<word> 1(processor);
        nFaces          58;
        startFace       39528;
        matchTolerance  0.0001;
        transform       unknown;
        myProcNo        7;
        neighbProcNo    18;
    }
    procBoundary7to22
    {
        type            processor;
        inGroups        List<word> 1(processor);
        nFaces          212;
        startFace       39586;
        matchTolerance  0.0001;
        transform       unknown;
        myProcNo        7;
        neighbProcNo    22;
    }
    procBoundary7to23
    {
        type            processor;
        inGroups        List<word> 1(processor);
        nFaces          804;
        startFace       39798;
        matchTolerance  0.0001;
        transform       unknown;
        myProcNo        7;
        neighbProcNo    23;
    }
    procBoundary7to27
    {
        type            processor;
        inGroups        List<word> 1(processor);
        nFaces          23;
        startFace       40602;
        matchTolerance  0.0001;
        transform       unknown;
        myProcNo        7;
        neighbProcNo    27;
    }
)

// ************************************************************************* //
