/*--------------------------------*- C++ -*----------------------------------*\
  =========                 |
  \\      /  F ield         | OpenFOAM: The Open Source CFD Toolbox
   \\    /   O peration     | Website:  https://openfoam.org
    \\  /    A nd           | Version:  7
     \\/     M anipulation  |
\*---------------------------------------------------------------------------*/
FoamFile
{
    version     2.0;
    format      ascii;
    class       polyBoundaryMesh;
    location    "constant/polyMesh";
    object      boundary;
}
// * * * * * * * * * * * * * * * * * * * * * * * * * * * * * * * * * * * * * //

12
(
    yMinusWall
    {
        type            patch;
        nFaces          2;
        startFace       37111;
    }
    yPlusWall
    {
        type            patch;
        nFaces          0;
        startFace       37113;
    }
    inlet
    {
        type            patch;
        nFaces          0;
        startFace       37113;
    }
    outlet
    {
        type            patch;
        nFaces          0;
        startFace       37113;
    }
    bottomWall
    {
        type            wall;
        inGroups        List<word> 1(wall);
        nFaces          1026;
        startFace       37113;
    }
    topWall
    {
        type            patch;
        nFaces          0;
        startFace       38139;
    }
    greenhouse
    {
        type            wall;
        inGroups        List<word> 1(wall);
        nFaces          971;
        startFace       38139;
    }
    procBoundary1to0
    {
        type            processor;
        inGroups        List<word> 1(processor);
        nFaces          257;
        startFace       39110;
        matchTolerance  0.0001;
        transform       unknown;
        myProcNo        1;
        neighbProcNo    0;
    }
    procBoundary1to2
    {
        type            processor;
        inGroups        List<word> 1(processor);
        nFaces          632;
        startFace       39367;
        matchTolerance  0.0001;
        transform       unknown;
        myProcNo        1;
        neighbProcNo    2;
    }
    procBoundary1to4
    {
        type            processor;
        inGroups        List<word> 1(processor);
        nFaces          207;
        startFace       39999;
        matchTolerance  0.0001;
        transform       unknown;
        myProcNo        1;
        neighbProcNo    4;
    }
    procBoundary1to5
    {
        type            processor;
        inGroups        List<word> 1(processor);
        nFaces          501;
        startFace       40206;
        matchTolerance  0.0001;
        transform       unknown;
        myProcNo        1;
        neighbProcNo    5;
    }
    procBoundary1to17
    {
        type            processor;
        inGroups        List<word> 1(processor);
        nFaces          754;
        startFace       40707;
        matchTolerance  0.0001;
        transform       unknown;
        myProcNo        1;
        neighbProcNo    17;
    }
)

// ************************************************************************* //
