/*--------------------------------*- C++ -*----------------------------------*\
  =========                 |
  \\      /  F ield         | OpenFOAM: The Open Source CFD Toolbox
   \\    /   O peration     | Website:  https://openfoam.org
    \\  /    A nd           | Version:  7
     \\/     M anipulation  |
\*---------------------------------------------------------------------------*/
FoamFile
{
    version     2.0;
    format      ascii;
    class       polyBoundaryMesh;
    location    "constant/polyMesh";
    object      boundary;
}
// * * * * * * * * * * * * * * * * * * * * * * * * * * * * * * * * * * * * * //

16
(
    yMinusWall
    {
        type            patch;
        nFaces          0;
        startFace       36784;
    }
    yPlusWall
    {
        type            patch;
        nFaces          0;
        startFace       36784;
    }
    inlet
    {
        type            patch;
        nFaces          6;
        startFace       36784;
    }
    outlet
    {
        type            patch;
        nFaces          0;
        startFace       36790;
    }
    bottomWall
    {
        type            wall;
        inGroups        List<word> 1(wall);
        nFaces          993;
        startFace       36790;
    }
    topWall
    {
        type            patch;
        nFaces          0;
        startFace       37783;
    }
    greenhouse
    {
        type            wall;
        inGroups        List<word> 1(wall);
        nFaces          0;
        startFace       37783;
    }
    procBoundary4to0
    {
        type            processor;
        inGroups        List<word> 1(processor);
        nFaces          418;
        startFace       37783;
        matchTolerance  0.0001;
        transform       unknown;
        myProcNo        4;
        neighbProcNo    0;
    }
    procBoundary4to1
    {
        type            processor;
        inGroups        List<word> 1(processor);
        nFaces          207;
        startFace       38201;
        matchTolerance  0.0001;
        transform       unknown;
        myProcNo        4;
        neighbProcNo    1;
    }
    procBoundary4to5
    {
        type            processor;
        inGroups        List<word> 1(processor);
        nFaces          384;
        startFace       38408;
        matchTolerance  0.0001;
        transform       unknown;
        myProcNo        4;
        neighbProcNo    5;
    }
    procBoundary4to8
    {
        type            processor;
        inGroups        List<word> 1(processor);
        nFaces          746;
        startFace       38792;
        matchTolerance  0.0001;
        transform       unknown;
        myProcNo        4;
        neighbProcNo    8;
    }
    procBoundary4to9
    {
        type            processor;
        inGroups        List<word> 1(processor);
        nFaces          11;
        startFace       39538;
        matchTolerance  0.0001;
        transform       unknown;
        myProcNo        4;
        neighbProcNo    9;
    }
    procBoundary4to17
    {
        type            processor;
        inGroups        List<word> 1(processor);
        nFaces          49;
        startFace       39549;
        matchTolerance  0.0001;
        transform       unknown;
        myProcNo        4;
        neighbProcNo    17;
    }
    procBoundary4to20
    {
        type            processor;
        inGroups        List<word> 1(processor);
        nFaces          800;
        startFace       39598;
        matchTolerance  0.0001;
        transform       unknown;
        myProcNo        4;
        neighbProcNo    20;
    }
    procBoundary4to21
    {
        type            processor;
        inGroups        List<word> 1(processor);
        nFaces          165;
        startFace       40398;
        matchTolerance  0.0001;
        transform       unknown;
        myProcNo        4;
        neighbProcNo    21;
    }
    procBoundary4to25
    {
        type            processor;
        inGroups        List<word> 1(processor);
        nFaces          8;
        startFace       40563;
        matchTolerance  0.0001;
        transform       unknown;
        myProcNo        4;
        neighbProcNo    25;
    }
)

// ************************************************************************* //
