/*--------------------------------*- C++ -*----------------------------------*\
  =========                 |
  \\      /  F ield         | OpenFOAM: The Open Source CFD Toolbox
   \\    /   O peration     | Website:  https://openfoam.org
    \\  /    A nd           | Version:  7
     \\/     M anipulation  |
\*---------------------------------------------------------------------------*/
FoamFile
{
    version     2.0;
    format      ascii;
    class       polyBoundaryMesh;
    location    "constant/polyMesh";
    object      boundary;
}
// * * * * * * * * * * * * * * * * * * * * * * * * * * * * * * * * * * * * * //

16
(
    yMinusWall
    {
        type            patch;
        nFaces          40;
        startFace       36275;
    }
    yPlusWall
    {
        type            patch;
        nFaces          0;
        startFace       36315;
    }
    inlet
    {
        type            patch;
        nFaces          0;
        startFace       36315;
    }
    outlet
    {
        type            patch;
        nFaces          0;
        startFace       36315;
    }
    bottomWall
    {
        type            wall;
        inGroups        List<word> 1(wall);
        nFaces          0;
        startFace       36315;
    }
    topWall
    {
        type            patch;
        nFaces          42;
        startFace       36315;
    }
    greenhouse
    {
        type            wall;
        inGroups        List<word> 1(wall);
        nFaces          0;
        startFace       36357;
    }
    procBoundary18to2
    {
        type            processor;
        inGroups        List<word> 1(processor);
        nFaces          783;
        startFace       36357;
        matchTolerance  0.0001;
        transform       unknown;
        myProcNo        18;
        neighbProcNo    2;
    }
    procBoundary18to3
    {
        type            processor;
        inGroups        List<word> 1(processor);
        nFaces          499;
        startFace       37140;
        matchTolerance  0.0001;
        transform       unknown;
        myProcNo        18;
        neighbProcNo    3;
    }
    procBoundary18to6
    {
        type            processor;
        inGroups        List<word> 1(processor);
        nFaces          2;
        startFace       37639;
        matchTolerance  0.0001;
        transform       unknown;
        myProcNo        18;
        neighbProcNo    6;
    }
    procBoundary18to7
    {
        type            processor;
        inGroups        List<word> 1(processor);
        nFaces          58;
        startFace       37641;
        matchTolerance  0.0001;
        transform       unknown;
        myProcNo        18;
        neighbProcNo    7;
    }
    procBoundary18to17
    {
        type            processor;
        inGroups        List<word> 1(processor);
        nFaces          1667;
        startFace       37699;
        matchTolerance  0.0001;
        transform       unknown;
        myProcNo        18;
        neighbProcNo    17;
    }
    procBoundary18to19
    {
        type            processor;
        inGroups        List<word> 1(processor);
        nFaces          743;
        startFace       39366;
        matchTolerance  0.0001;
        transform       unknown;
        myProcNo        18;
        neighbProcNo    19;
    }
    procBoundary18to21
    {
        type            processor;
        inGroups        List<word> 1(processor);
        nFaces          16;
        startFace       40109;
        matchTolerance  0.0001;
        transform       unknown;
        myProcNo        18;
        neighbProcNo    21;
    }
    procBoundary18to22
    {
        type            processor;
        inGroups        List<word> 1(processor);
        nFaces          806;
        startFace       40125;
        matchTolerance  0.0001;
        transform       unknown;
        myProcNo        18;
        neighbProcNo    22;
    }
    procBoundary18to23
    {
        type            processor;
        inGroups        List<word> 1(processor);
        nFaces          317;
        startFace       40931;
        matchTolerance  0.0001;
        transform       unknown;
        myProcNo        18;
        neighbProcNo    23;
    }
)

// ************************************************************************* //
