/*--------------------------------*- C++ -*----------------------------------*\
  =========                 |
  \\      /  F ield         | OpenFOAM: The Open Source CFD Toolbox
   \\    /   O peration     | Website:  https://openfoam.org
    \\  /    A nd           | Version:  7
     \\/     M anipulation  |
\*---------------------------------------------------------------------------*/
FoamFile
{
    version     2.0;
    format      ascii;
    class       polyBoundaryMesh;
    location    "constant/polyMesh";
    object      boundary;
}
// * * * * * * * * * * * * * * * * * * * * * * * * * * * * * * * * * * * * * //

16
(
    yMinusWall
    {
        type            patch;
        nFaces          40;
        startFace       36286;
    }
    yPlusWall
    {
        type            patch;
        nFaces          0;
        startFace       36326;
    }
    inlet
    {
        type            patch;
        nFaces          0;
        startFace       36326;
    }
    outlet
    {
        type            patch;
        nFaces          0;
        startFace       36326;
    }
    bottomWall
    {
        type            wall;
        inGroups        List<word> 1(wall);
        nFaces          0;
        startFace       36326;
    }
    topWall
    {
        type            patch;
        nFaces          42;
        startFace       36326;
    }
    greenhouse
    {
        type            wall;
        inGroups        List<word> 1(wall);
        nFaces          0;
        startFace       36368;
    }
    procBoundary17to0
    {
        type            processor;
        inGroups        List<word> 1(processor);
        nFaces          510;
        startFace       36368;
        matchTolerance  0.0001;
        transform       unknown;
        myProcNo        17;
        neighbProcNo    0;
    }
    procBoundary17to1
    {
        type            processor;
        inGroups        List<word> 1(processor);
        nFaces          754;
        startFace       36878;
        matchTolerance  0.0001;
        transform       unknown;
        myProcNo        17;
        neighbProcNo    1;
    }
    procBoundary17to2
    {
        type            processor;
        inGroups        List<word> 1(processor);
        nFaces          14;
        startFace       37632;
        matchTolerance  0.0001;
        transform       unknown;
        myProcNo        17;
        neighbProcNo    2;
    }
    procBoundary17to4
    {
        type            processor;
        inGroups        List<word> 1(processor);
        nFaces          49;
        startFace       37646;
        matchTolerance  0.0001;
        transform       unknown;
        myProcNo        17;
        neighbProcNo    4;
    }
    procBoundary17to5
    {
        type            processor;
        inGroups        List<word> 1(processor);
        nFaces          2;
        startFace       37695;
        matchTolerance  0.0001;
        transform       unknown;
        myProcNo        17;
        neighbProcNo    5;
    }
    procBoundary17to16
    {
        type            processor;
        inGroups        List<word> 1(processor);
        nFaces          838;
        startFace       37697;
        matchTolerance  0.0001;
        transform       unknown;
        myProcNo        17;
        neighbProcNo    16;
    }
    procBoundary17to18
    {
        type            processor;
        inGroups        List<word> 1(processor);
        nFaces          1667;
        startFace       38535;
        matchTolerance  0.0001;
        transform       unknown;
        myProcNo        17;
        neighbProcNo    18;
    }
    procBoundary17to20
    {
        type            processor;
        inGroups        List<word> 1(processor);
        nFaces          333;
        startFace       40202;
        matchTolerance  0.0001;
        transform       unknown;
        myProcNo        17;
        neighbProcNo    20;
    }
    procBoundary17to21
    {
        type            processor;
        inGroups        List<word> 1(processor);
        nFaces          750;
        startFace       40535;
        matchTolerance  0.0001;
        transform       unknown;
        myProcNo        17;
        neighbProcNo    21;
    }
)

// ************************************************************************* //
