/*--------------------------------*- C++ -*----------------------------------*\
  =========                 |
  \\      /  F ield         | OpenFOAM: The Open Source CFD Toolbox
   \\    /   O peration     | Website:  https://openfoam.org
    \\  /    A nd           | Version:  7
     \\/     M anipulation  |
\*---------------------------------------------------------------------------*/
FoamFile
{
    version     2.0;
    format      ascii;
    class       featureEdgeMesh;
    location    "constant/triSurface";
    object      greenhouse.eMesh;
}
// * * * * * * * * * * * * * * * * * * * * * * * * * * * * * * * * * * * * * //


// points:

16386
(
(-1 -2 1.224646852585168e-16)
(1 -2 0)
(1 2 0)
(-1 2 1.224646852585168e-16)
(0.945980966091156 -2 0.3242221772670746)
(0.9458565711975098 -2 0.3245849311351776)
(0.9697510600090027 -2 0.2440960258245468)
(0.9696573615074158 -2 0.2444678992033005)
(0.9933451414108276 -2 0.1151758804917336)
(0.9933008551597595 -2 0.1155568137764931)
(0.9595715403556824 -2 0.2814649343490601)
(0.9594634771347046 -2 0.2818329036235809)
(0.959355354309082 -2 0.2822008430957794)
(0.9592470526695251 -2 0.2825687229633331)
(0.8715950846672058 -2 0.4902264773845673)
(0.8714070320129395 -2 0.4905607104301453)
(0.9998993277549744 -2 0.0141888465732336)
(0.999893844127655 -2 0.01457230187952518)
(0.9851462244987488 -2 0.1717175394296646)
(0.9850803017616272 -2 0.1720953285694122)
(0.9709559082984924 -2 0.2392583787441254)
(0.9708641171455383 -2 0.239630714058876)
(0.9707721471786499 -2 0.2400030195713043)
(0.9706800580024719 -2 0.2403752952814102)
(0.9704028367996216 -2 0.2414918839931488)
(0.9703101515769958 -2 0.2418640106916428)
(0.9695635437965393 -2 0.2448397427797318)
(0.9694696068763733 -2 0.2452115416526794)
(0.9693754911422729 -2 0.2455833107233047)
(0.9662888050079346 -2 0.2574605643749237)
(0.966189980506897 -2 0.2578310966491699)
(0.9660910367965698 -2 0.2582015991210938)
(0.9659919738769531 -2 0.2585720717906952)
(0.9636737108230591 -2 0.2670823335647583)
(0.9635711908340454 -2 0.2674518823623657)
(0.961491584777832 -2 0.2748344540596008)
(0.9613860845565796 -2 0.275203138589859)
(0.9457319974899292 -2 0.3249476253986359)
(0.9456073045730591 -2 0.3253102898597717)
(0.9454824924468994 -2 0.3256728947162628)
(0.9991264939308167 -2 0.04178880527615547)
(0.9991103410720825 -2 0.04217196255922318)
(0.9990941286087036 -2 0.04255511239171028)
(0.9990777373313904 -2 0.04293825849890709)
(0.9970009922981262 -2 0.07738857716321945)
(0.9969712495803833 -2 0.0777709111571312)
(0.9969413280487061 -2 0.07815324515104294)
(0.9969112873077393 -2 0.07853555679321289)
(0.9968811273574829 -2 0.07891786098480225)
(0.9968507885932922 -2 0.079300157725811)
(0.9966656565666199 -2 0.08159366995096207)
(0.996634304523468 -2 0.08197587728500366)
(0.9965393543243408 -2 0.08312243968248367)
(0.9965074062347412 -2 0.08350460231304169)
(0.9964752793312073 -2 0.08388675004243851)
(0.9964430332183838 -2 0.08426889032125473)
(0.9939491748809814 -2 0.1098410412669182)
(0.9939069747924805 -2 0.1102222055196762)
(0.9939911961555481 -2 0.1094598546624184)
(0.9936507344245911 -2 0.1125088632106781)
(0.9936075210571289 -2 0.1128899157047272)
(0.9932565093040466 -2 0.1159377321600914)
(0.9932119250297546 -2 0.1163186281919479)
(0.9931672811508179 -2 0.1166995167732239)
(0.9920992851257324 -2 0.1254549771547318)
(0.9920511245727539 -2 0.1258354336023331)
(0.9886065125465393 -2 0.1505228281021118)
(0.988548755645752 -2 0.1509019434452057)
(0.9884908199310303 -2 0.1512810438871384)
(0.9884327054023743 -2 0.1516601145267487)
(0.9883744716644287 -2 0.1520391553640366)
(0.9883161187171936 -2 0.1524181813001633)
(0.9876042008399963 -2 0.1569647192955017)
(0.9875439405441284 -2 0.1573434621095657)
(0.9874835014343262 -2 0.1577221602201462)
(0.9874229431152344 -2 0.1581008434295654)
(0.987362265586853 -2 0.1584795117378235)
(0.9873014092445374 -2 0.1588581502437592)
(0.9739929437637329 -2 0.2265782654285431)
(0.9739059805870056 -2 0.2269517630338669)
(0.9705877900123596 -2 0.2407475262880325)
(0.9704954028129578 -2 0.2411197274923325)
(0.9702173471450806 -2 0.2422361075878143)
(0.970124363899231 -2 0.2426081597805023)
(0.9700312614440918 -2 0.2429801821708679)
(0.9699379801750183 -2 0.2433521598577499)
(0.9698445796966553 -2 0.2437241077423096)
(0.9692812561988831 -2 0.2459550499916077)
(0.9691868424415588 -2 0.246326744556427)
(0.9690923094749451 -2 0.246698409318924)
(0.968997597694397 -2 0.2470700293779373)
(0.9689028263092041 -2 0.2474416196346283)
(0.9688078165054321 -2 0.2478131651878357)
(0.9666826128959656 -2 0.255977988243103)
(0.9665843844413757 -2 0.2563486695289612)
(0.9658927321434021 -2 0.2589425146579742)
(0.9657933712005615 -2 0.2593129277229309)
(0.9656938314437866 -2 0.2596832811832428)
(0.9655941724777222 -2 0.2600536048412323)
(0.9654943943023682 -2 0.260423868894577)
(0.9653944373130798 -2 0.2607941031455994)
(0.9643872380256653 -2 0.2644944190979004)
(0.9642857313156128 -2 0.2648642361164093)
(0.9626423716545105 -2 0.2707760035991669)
(0.962538480758667 -2 0.2711451649665833)
(0.9615969061851501 -2 0.2744657099246979)
(0.9563819766044617 -2 0.2921190559864044)
(0.9562698602676392 -2 0.2924858033657074)
(0.9528416395187378 -2 0.3034679591655731)
(0.9527251720428467 -2 0.3038333356380463)
(0.9117060303688049 -2 0.410843163728714)
(0.9115484356880188 -2 0.411192774772644)
(0.9043169617652893 -2 0.4268616139888763)
(0.9041531682014465 -2 0.4272083938121796)
(0.9034968018531799 -2 0.4285948276519775)
(0.9033323526382446 -2 0.4289412796497345)
(0.9036610722541809 -2 0.4282483160495758)
(0.89305180311203 -2 0.4499538540840149)
(0.8928791880607605 -2 0.4502962827682495)
(0.9999381303787231 -2 0.01112113147974014)
(0.9999338388442993 -2 0.01150460168719292)
(0.9999293088912964 -2 0.01188807096332312)
(0.9998881816864014 -2 0.01495575532317162)
(0.9998823404312134 -2 0.01533920597285032)
(0.9998763799667358 -2 0.01572265475988388)
(0.9990611672401428 -2 0.043321393430233)
(0.9990444779396057 -2 0.04370452836155891)
(0.9990276694297791 -2 0.04408765211701393)
(0.997374415397644 -2 0.07241714745759964)
(0.9973465800285339 -2 0.07279963046312332)
(0.9968202710151672 -2 0.07968243956565857)
(0.9967896938323975 -2 0.08006470650434494)
(0.9967588782310486 -2 0.08044696599245071)
(0.9966027736663818 -2 0.08235807716846466)
(0.9965711236000061 -2 0.08274026215076447)
(0.9964106678962708 -2 0.08465101569890976)
(0.9963781237602234 -2 0.08503312617540359)
(0.9963454604148865 -2 0.08541522175073624)
(0.9963126182556152 -2 0.08579730987548828)
(0.9962796568870544 -2 0.08617939054965973)
(0.9962465167045593 -2 0.08656144887208939)
(0.9879627823829651 -2 0.1546918600797653)
(0.987903356552124 -2 0.1550707370042801)
(0.9878438115119934 -2 0.1554495692253113)
(0.9877841472625732 -2 0.1558284014463425)
(0.9877243041992188 -2 0.1562072038650513)
(0.9876643419265747 -2 0.1565859764814377)
(0.9872404336929321 -2 0.1592367589473724)
(0.9871792793273926 -2 0.1596153527498245)
(0.9871180057525635 -2 0.1599939167499542)
(0.9870565533638 -2 0.1603724509477615)
(0.9869949817657471 -2 0.1607509702444077)
(0.9869332909584045 -2 0.1611294746398926)
(0.9687127470970154 -2 0.2481846809387207)
(0.9686174988746643 -2 0.2485561668872833)
(0.9685220718383789 -2 0.2489276081323624)
(0.9684265851974487 -2 0.2492990046739578)
(0.9683308601379395 -2 0.2496703863143921)
(0.9682350754737854 -2 0.2500417232513428)
(0.9664859771728516 -2 0.2567193508148193)
(0.9663874506950378 -2 0.2570899724960327)
(0.9647918343544006 -2 0.2630147635936737)
(0.9646908640861511 -2 0.2633847296237946)
(0.9624344110488892 -2 0.2715142667293549)
(0.9623302221298218 -2 0.2718833386898041)
(0.9622258543968201 -2 0.2722523808479309)
(0.9346391558647156 -2 0.3555976748466492)
(0.9345027208328247 -2 0.3559560775756836)
(0.9177485108375549 -2 0.3971619606018066)
(0.917596161365509 -2 0.3975138962268829)
(0.9118635058403015 -2 0.4104934930801392)
(0.9088483452796936 -2 0.4171267747879028)
(0.9086883068084717 -2 0.4174752831459045)
(0.903989315032959 -2 0.4275550842285156)
(0.9038252830505371 -2 0.4279017448425293)
(0.8649367690086365 -2 0.5018808245658875)
(0.864744246006012 -2 0.5022124648094177)
(0.5414617657661438 -2 0.8407253623008728)
(0.5411393046379089 -2 0.8409329652786255)
(0.9999247193336487 -2 0.01227153837680817)
(0.9999199509620667 -2 0.01265500392764807)
(0.9999150037765503 -2 0.01303846761584282)
(0.9999099373817444 -2 0.01342192851006985)
(0.9999046921730042 -2 0.0138053884729743)
(0.9998576641082764 -2 0.01687298715114594)
(0.9998511075973511 -2 0.01725642755627632)
(0.9998444318771362 -2 0.01763986423611641)
(0.9998375773429871 -2 0.01802329905331135)
(0.9998306035995483 -2 0.01840673014521599)
(0.9998087286949158 -2 0.01955700851976871)
(0.9998011589050293 -2 0.01994042843580246)
(0.9997934699058533 -2 0.02032384648919106)
(0.9997856020927429 -2 0.02070726081728935)
(0.9997775554656982 -2 0.02109067142009735)
(0.999769389629364 -2 0.0214740801602602)
(0.9993776679039001 -2 0.03527423739433289)
(0.9993640780448914 -2 0.03565749153494835)
(0.9990106821060181 -2 0.04447077214717865)
(0.9989935755729675 -2 0.04485388472676277)
(0.9989762902259827 -2 0.0452369898557663)
(0.9988512396812439 -2 0.04791854321956635)
(0.9988328218460083 -2 0.04830159246921539)
(0.9976184368133545 -2 0.0689743310213089)
(0.9975919127464294 -2 0.06935690343379974)
(0.9975652098655701 -2 0.06973946839570999)
(0.9975384473800659 -2 0.07012202590703964)
(0.9971475601196289 -2 0.07547670602798462)
(0.9971185326576233 -2 0.07585910707712173)
(0.9970893859863281 -2 0.07624148577451706)
(0.995296835899353 -2 0.09687212854623795)
(0.9952595829963684 -2 0.09725381433963776)
(0.995222270488739 -2 0.09763548523187637)
(0.9946441650390625 -2 0.1033587828278542)
(0.9946044087409973 -2 0.1037402153015137)
(0.9938646554946899 -2 0.110603354871273)
(0.9938221573829651 -2 0.1109844893217087)
(0.9937794804573059 -2 0.1113656088709831)
(0.9931224584579468 -2 0.117080383002758)
(0.9930774569511414 -2 0.1174612268805504)
(0.9930323362350464 -2 0.1178420633077621)
(0.9929870963096619 -2 0.1182228773832321)
(0.992941677570343 -2 0.1186036765575409)
(0.9928961396217346 -2 0.1189844533801079)
(0.9902193546295166 -2 0.1395190954208374)
(0.9901658296585083 -2 0.1398988366127014)
(0.9901120662689209 -2 0.140278548002243)
(0.9891765117645264 -2 0.1467304676771164)
(0.9891201853752136 -2 0.1471098065376282)
(0.9882575869560242 -2 0.1527971923351288)
(0.9881988763809204 -2 0.1531761586666107)
(0.9881401062011719 -2 0.1535551249980927)
(0.9850142598152161 -2 0.1724730879068375)
(0.9849480390548706 -2 0.1728508174419403)
(0.9848816394805908 -2 0.173228532075882)
(0.9669764637947083 -2 0.2548656463623047)
(0.9668786525726318 -2 0.2552364766597748)
(0.9667807221412659 -2 0.2556072473526001)
(0.965294361114502 -2 0.2611643373966217)
(0.9651941061019897 -2 0.2615344822406769)
(0.9650937914848328 -2 0.2619046270847321)
(0.9645897746086121 -2 0.263754665851593)
(0.9644885659217834 -2 0.2641245722770691)
(0.964184045791626 -2 0.2652340233325958)
(0.9640823006629944 -2 0.26560378074646)
(0.9639803767204285 -2 0.2659734785556793)
(0.9634685516357422 -2 0.2678214013576508)
(0.9633657932281494 -2 0.268190860748291)
(0.9632628560066223 -2 0.2685602903366089)
(0.9631597995758057 -2 0.268929660320282)
(0.9630566239356995 -2 0.2692990303039551)
(0.9629532694816589 -2 0.269668310880661)
(0.9621214270591736 -2 0.272621363401413)
(0.962016761302948 -2 0.2729903161525726)
(0.9619120359420776 -2 0.2733592092990875)
(0.9618071317672729 -2 0.27372807264328)
(0.9617020487785339 -2 0.2740969061851501)
(0.9585943222045898 -2 0.2847751677036285)
(0.9584850668907166 -2 0.2851427793502808)
(0.9583756327629089 -2 0.2855103313922882)
(0.9561576247215271 -2 0.2928524911403656)
(0.9560452699661255 -2 0.2932191491127014)
(0.9559327363967896 -2 0.2935857772827148)
(0.9558200836181641 -2 0.2939523458480835)
(0.9557072520256042 -2 0.2943188846111298)
(0.9555943608283997 -2 0.2946853637695312)
(0.952608585357666 -2 0.304198682308197)
(0.9524918794631958 -2 0.304563969373703)
(0.9523749947547913 -2 0.3049292266368866)
(0.9488039016723633 -2 0.3158657550811768)
(0.9486826658248901 -2 0.3162295818328857)
(0.9085280895233154 -2 0.4178237020969391)
(0.9083678126335144 -2 0.4181720912456512)
(0.9082073569297791 -2 0.4185204207897186)
(0.9054595828056335 -2 0.4244324862957001)
(0.9052967429161072 -2 0.4247796833515167)
(0.5343494415283203 -2 0.845263659954071)
(0.534025251865387 -2 0.8454685211181641)
(0.9999999403953552 -2 0.0003834951785393059)
(0.9999964237213135 -2 0.002684463048353791)
(0.9999952912330627 -2 0.003067956771701574)
(0.9999855756759644 -2 0.005368907004594803)
(0.9999834299087524 -2 0.005752396304160357)
(0.999981164932251 -2 0.006135884672403336)
(0.9999787211418152 -2 0.00651937210932374)
(0.9999706149101257 -2 0.007669828832149506)
(0.9999675750732422 -2 0.008053312078118324)
(0.9999644160270691 -2 0.008436794392764568)
(0.9999610781669617 -2 0.008820274844765663)
(0.9998703002929688 -2 0.01610610261559486)
(0.9998640418052673 -2 0.01648954674601555)
(0.9998234510421753 -2 0.01879015937447548)
(0.9998161792755127 -2 0.01917358487844467)
(0.9997611045837402 -2 0.02185748517513275)
(0.9997526407241821 -2 0.02224088832736015)
(0.9997440576553345 -2 0.02262428589165211)
(0.9995753169059753 -2 0.02914150804281235)
(0.9995640516281128 -2 0.02952483855187893)
(0.9995526671409607 -2 0.02990816533565521)
(0.9995411038398743 -2 0.03029148653149605)
(0.9995294213294983 -2 0.03067480400204659)
(0.999517560005188 -2 0.03105811588466167)
(0.9995055794715881 -2 0.03144142404198647)
(0.9994305968284607 -2 0.03374117240309715)
(0.9994176030158997 -2 0.03412444517016411)
(0.9992793798446655 -2 0.03795690461993217)
(0.9992647767066956 -2 0.03834012150764465)
(0.9988695383071899 -2 0.0475354827940464)
(0.9984114170074463 -2 0.05634393915534019)
(0.998389720916748 -2 0.05672682076692581)
(0.9983679056167603 -2 0.05710969492793083)
(0.9983459115028381 -2 0.05749255791306496)
(0.9977744817733765 -2 0.06667865812778473)
(0.997748851776123 -2 0.06706129014492035)
(0.9977230429649353 -2 0.06744392216205597)
(0.997697114944458 -2 0.0678265392780304)
(0.9975114464759827 -2 0.0705045759677887)
(0.9974843263626099 -2 0.07088711112737656)
(0.9974570870399475 -2 0.07126963138580322)
(0.997262179851532 -2 0.07394701242446899)
(0.9972337484359741 -2 0.07432945072650909)
(0.9970600605010986 -2 0.07662386447191238)
(0.9970306158065796 -2 0.07700622081756592)
(0.9967279434204102 -2 0.08082921057939529)
(0.9966968894004822 -2 0.08121144771575928)
(0.9951847195625305 -2 0.0980171412229538)
(0.9951470494270325 -2 0.09839878231287003)
(0.9951092600822449 -2 0.09878040850162506)
(0.994116485118866 -2 0.1083162128925323)
(0.9940748810768127 -2 0.1086974442005157)
(0.9940330982208252 -2 0.109078660607338)
(0.993736743927002 -2 0.1117467135190964)
(0.9936937689781189 -2 0.1121277958154678)
(0.9935641288757324 -2 0.1132709532976151)
(0.9935206174850464 -2 0.1136519685387611)
(0.9934769868850708 -2 0.1140329763293266)
(0.9934331774711609 -2 0.1144139617681503)
(0.9933891892433167 -2 0.1147949248552322)
(0.992758572101593 -2 0.1201266869902611)
(0.9927124381065369 -2 0.1205073967576027)
(0.9900581836700439 -2 0.1406582444906235)
(0.9900041818618774 -2 0.1410379111766815)
(0.9899500608444214 -2 0.1414175629615784)
(0.9894004464149475 -2 0.1452129185199738)
(0.9893446564674377 -2 0.1455923467874527)
(0.9894560575485229 -2 0.1448334902524948)
(0.9892887473106384 -2 0.1459717452526093)
(0.9892327189445496 -2 0.1463511139154434)
(0.9887790679931641 -2 0.1493853479623795)
(0.9887216687202454 -2 0.1497645378112793)
(0.9886642098426819 -2 0.1501436978578568)
(0.9880810976028442 -2 0.1539340615272522)
(0.9880220293998718 -2 0.1543129682540894)
(0.9868714213371277 -2 0.1615079492330551)
(0.9868093729019165 -2 0.1618863940238953)
(0.9867472648620605 -2 0.1622648239135742)
(0.9866849184036255 -2 0.1626432240009308)
(0.9866225123405457 -2 0.163021594285965)
(0.9865599274635315 -2 0.163399949669838)
(0.9863712787628174 -2 0.164534866809845)
(0.9863080978393555 -2 0.1649131178855896)
(0.986244797706604 -2 0.165291354060173)
(0.9861813187599182 -2 0.1656695604324341)
(0.9853431582450867 -2 0.1705840229988098)
(0.9852776527404785 -2 0.1709618866443634)
(0.9852120280265808 -2 0.1713397204875946)
(0.9844804406166077 -2 0.1754942536354065)
(0.9844130873680115 -2 0.1758717894554138)
(0.9673662781715393 -2 0.2533820271492004)
(0.9672690629959106 -2 0.2537530064582825)
(0.9649932384490967 -2 0.2622747123241425)
(0.9648926258087158 -2 0.2626447677612305)
(0.9638782739639282 -2 0.2663431465625763)
(0.9637760519981384 -2 0.2667127549648285)
(0.9628497958183289 -2 0.2700375914573669)
(0.9627461433410645 -2 0.2704068124294281)
(0.9612804651260376 -2 0.2755718231201172)
(0.9611747264862061 -2 0.2759404480457306)
(0.961068868637085 -2 0.2763090431690216)
(0.9609628319740295 -2 0.2766775786876678)
(0.9608566164970398 -2 0.2770460844039917)
(0.9607503414154053 -2 0.2774145305156708)
(0.9604305028915405 -2 0.2785196900367737)
(0.9603236317634583 -2 0.2788879871368408)
(0.9602166414260864 -2 0.2792562544345856)
(0.9591386318206787 -2 0.2829365730285645)
(0.9590300321578979 -2 0.283304363489151)
(0.9589213132858276 -2 0.2836721241474152)
(0.9520235657691956 -2 0.3060247302055359)
(0.951906144618988 -2 0.3063898086547852)
(0.9510802030563354 -2 0.308944046497345)
(0.9509616494178772 -2 0.3093087673187256)
(0.9511986374855042 -2 0.308579295873642)
(0.9479525685310364 -2 0.318411648273468)
(0.9478303790092468 -2 0.3187751471996307)
(0.9477080702781677 -2 0.3191386163234711)
(0.9475855827331543 -2 0.3195020258426666)
(0.9474629759788513 -2 0.3198654055595398)
(0.9473402500152588 -2 0.3202287256717682)
(0.9472174048423767 -2 0.3205920159816742)
(0.9470943808555603 -2 0.3209552466869354)
(0.9469712376594543 -2 0.3213184177875519)
(0.9468479156494141 -2 0.3216815590858459)
(0.9467244744300842 -2 0.3220446407794952)
(0.9410261511802673 -2 0.3383337557315826)
(0.9408963322639465 -2 0.3386946320533752)
(0.9347754120826721 -2 0.35523921251297)
(0.9289326667785645 -2 0.3702487051486969)
(0.9287906289100647 -2 0.370604932308197)
(0.9166790843009949 -2 0.3996241986751556)
(0.9165257215499878 -2 0.3999757170677185)
(0.9067574739456177 -2 0.4216525554656982)
(0.9065957069396973 -2 0.4220002591609955)
(0.9064338207244873 -2 0.4223479032516479)
(0.9051337838172913 -2 0.4251268208026886)
(0.9049707055091858 -2 0.4254738986492157)
(0.904807448387146 -2 0.425820916891098)
(0.9046440720558167 -2 0.4261678755283356)
(0.9044805765151978 -2 0.4265147745609283)
(0.9031677842140198 -2 0.4292876720428467)
(0.9030030965805054 -2 0.4296340048313141)
(0.9028382897377014 -2 0.4299802780151367)
(0.9026733040809631 -2 0.4303264915943146)
(0.9025081992149353 -2 0.4306726157665253)
(0.9023429751396179 -2 0.4310187101364136)
(0.902177631855011 -2 0.4313647150993347)
(0.9020121693611145 -2 0.4317106604576111)
(0.9018465280532837 -2 0.4320565462112427)
(0.8729079365730286 -2 0.4878849387168884)
(0.8727207779884338 -2 0.488219678401947)
(0.9999997019767761 -2 0.0007669902988709509)
(0.9999993443489075 -2 0.001150485360994935)
(0.9999988079071045 -2 0.001533980132080615)
(0.9999761581420898 -2 0.00690285861492157)
(0.999973475933075 -2 0.007286344189196825)
(0.9999576210975647 -2 0.009203754365444183)
(0.9999540448188782 -2 0.009587232954800129)
(0.9999502897262573 -2 0.009970709681510925)
(0.9999464154243469 -2 0.01035418547689915)
(0.9999423623085022 -2 0.01073765940964222)
(0.9996188282966614 -2 0.02760814502835274)
(0.9996081590652466 -2 0.02799149230122566)
(0.9996293187141418 -2 0.02722479403018951)
(0.9995973706245422 -2 0.02837483584880829)
(0.9995864033699036 -2 0.02875817380845547)
(0.9994934797286987 -2 0.03182472661137581)
(0.999481201171875 -2 0.03220802545547485)
(0.9994687438011169 -2 0.0325913205742836)
(0.9994561672210693 -2 0.03297460824251175)
(0.9994434714317322 -2 0.0333578921854496)
(0.9994044303894043 -2 0.03450771421194077)
(0.9993911385536194 -2 0.03489097952842712)
(0.9993503093719482 -2 0.03604074195027351)
(0.9993364214897156 -2 0.03642398491501808)
(0.9993223547935486 -2 0.03680722415447235)
(0.999308168888092 -2 0.03719045594334602)
(0.9992938637733459 -2 0.0375736840069294)
(0.9988142251968384 -2 0.04868463799357414)
(0.9987954497337341 -2 0.04906767606735229)
(0.9987765550613403 -2 0.04945070296525955)
(0.9984755516052246 -2 0.05519524589180946)
(0.9984543323516846 -2 0.05557814985513687)
(0.9984329342842102 -2 0.05596105009317398)
(0.9980707764625549 -2 0.06208626553416252)
(0.998046875 -2 0.06246901676058769)
(0.9980228543281555 -2 0.06285175681114197)
(0.9979987144470215 -2 0.06323449313640594)
(0.9979743957519531 -2 0.06361721456050873)
(0.9979498982429504 -2 0.06399992853403091)
(0.9979252815246582 -2 0.06438262760639191)
(0.9979005455970764 -2 0.0647653266787529)
(0.9978756308555603 -2 0.0651480108499527)
(0.9978505373001099 -2 0.0655306875705719)
(0.9978253245353699 -2 0.06591334939002991)
(0.9977999925613403 -2 0.06629601120948792)
(0.9976710677146912 -2 0.06820914149284363)
(0.99764484167099 -2 0.06859174370765686)
(0.9973185658454895 -2 0.07318209856748581)
(0.9972904324531555 -2 0.0735645666718483)
(0.9972051382064819 -2 0.0747118815779686)
(0.9971764087677002 -2 0.07509429752826691)
(0.9962132573127747 -2 0.08694349974393845)
(0.9961798191070557 -2 0.08732553571462631)
(0.9961462616920471 -2 0.08770755678415298)
(0.9958025813102722 -2 0.09152707457542419)
(0.9957674145698547 -2 0.09190895408391953)
(0.9958376288414001 -2 0.09114518761634827)
(0.9956610202789307 -2 0.09305451065301895)
(0.9956252574920654 -2 0.0934363380074501)
(0.9955893754959106 -2 0.09381814301013947)
(0.9955533146858215 -2 0.09419994056224823)
(0.9955170750617981 -2 0.0945817232131958)
(0.9954807758331299 -2 0.09496349841356277)
(0.9954442381858826 -2 0.09534525126218796)
(0.9954076409339905 -2 0.09572698920965195)
(0.9947624206542969 -2 0.1022143885493279)
(0.9947231411933899 -2 0.1025958657264709)
(0.9946836829185486 -2 0.1029773354530334)
(0.9945645928382874 -2 0.104121632874012)
(0.9945245385169983 -2 0.1045030355453491)
(0.9944844245910645 -2 0.1048844233155251)
(0.9944441318511963 -2 0.1052657961845398)
(0.9944036602973938 -2 0.1056471541523933)
(0.9943630695343018 -2 0.1060284972190857)
(0.9910567998886108 -2 0.1334405988454819)
(0.991005539894104 -2 0.133820652961731)
(0.9911079406738281 -2 0.1330605298280716)
(0.9898957014083862 -2 0.141797199845314)
(0.9898412823677063 -2 0.1421768069267273)
(0.989786684513092 -2 0.1425563991069794)
(0.9897319674491882 -2 0.1429359614849091)
(0.9896770715713501 -2 0.1433155089616776)
(0.9896219968795776 -2 0.1436950266361237)
(0.9895668625831604 -2 0.1440745443105698)
(0.9895114898681641 -2 0.1444540172815323)
(0.9890636801719666 -2 0.1474891155958176)
(0.9890070557594299 -2 0.1478684097528458)
(0.988950252532959 -2 0.1482476741075516)
(0.9888933300971985 -2 0.1486269235610962)
(0.9888362884521484 -2 0.1490061432123184)
(0.986497163772583 -2 0.1637782752513885)
(0.986434280872345 -2 0.164156585931778)
(0.9861177206039429 -2 0.1660477370023727)
(0.9860539436340332 -2 0.1664258986711502)
(0.985990047454834 -2 0.1668040454387665)
(0.9857975244522095 -2 0.1679382920265198)
(0.9857330322265625 -2 0.1683163344860077)
(0.9855387210845947 -2 0.1694502979516983)
(0.9854736924171448 -2 0.1698282212018967)
(0.9854084849357605 -2 0.170206144452095)
(0.9831756353378296 -2 0.1826628595590591)
(0.983105480670929 -2 0.1830398887395859)
(0.982036292552948 -2 0.1886920779943466)
(0.9819638729095459 -2 0.1890686601400375)
(0.9818912744522095 -2 0.1894452273845673)
(0.9818185567855835 -2 0.1898217648267746)
(0.981745719909668 -2 0.1901982724666595)
(0.9816727042198181 -2 0.1905747503042221)
(0.9815995097160339 -2 0.1909512132406235)
(0.981526255607605 -2 0.1913276314735413)
(0.9720467329025269 -2 0.2347875833511353)
(0.9719566106796265 -2 0.2351603358983994)
(0.9718663096427917 -2 0.2355330586433411)
(0.9671716690063477 -2 0.2541239261627197)
(0.9670741558074951 -2 0.2544948160648346)
(0.9606438875198364 -2 0.2777829766273499)
(0.9605372548103333 -2 0.2781513631343842)
(0.9588124752044678 -2 0.2840398550033569)
(0.9587034583091736 -2 0.2844075262546539)
(0.9582660794258118 -2 0.2858778238296509)
(0.9581563472747803 -2 0.2862453162670135)
(0.9580464959144592 -2 0.2866127192974091)
(0.9579365253448486 -2 0.2869801223278046)
(0.9578264355659485 -2 0.2873474657535553)
(0.957716166973114 -2 0.2877147495746613)
(0.955481231212616 -2 0.2950518131256104)
(0.9553680419921875 -2 0.2954182028770447)
(0.9552546739578247 -2 0.2957845628261566)
(0.9551411867141724 -2 0.2961508929729462)
(0.9550275206565857 -2 0.2965171635150909)
(0.9549137353897095 -2 0.2968833744525909)
(0.9547998309135437 -2 0.2972495555877686)
(0.9546857476234436 -2 0.2976157069206238)
(0.954571545124054 -2 0.2979817986488342)
(0.9522579908370972 -2 0.3052944242954254)
(0.9521408677101135 -2 0.3056595921516418)
(0.9515529870986938 -2 0.3074847459793091)
(0.9514350295066833 -2 0.307849645614624)
(0.9513168931007385 -2 0.3082144856452942)
(0.9483182430267334 -2 0.3173208236694336)
(0.9481964707374573 -2 0.3176844716072083)
(0.9480745792388916 -2 0.3180480897426605)
(0.9466009140014648 -2 0.3224076926708221)
(0.9464771747589111 -2 0.3227706849575043)
(0.9463533759117126 -2 0.3231336176395416)
(0.9462293386459351 -2 0.3234965205192566)
(0.9461052417755127 -2 0.3238593637943268)
(0.9453575611114502 -2 0.3260354697704315)
(0.9452324509620667 -2 0.3263979852199554)
(0.9451072216033936 -2 0.3267604410648346)
(0.9359959363937378 -2 0.3520107567310333)
(0.9358608722686768 -2 0.3523696959018707)
(0.9354548454284668 -2 0.3534461557865143)
(0.9353192448616028 -2 0.3538048565387726)
(0.9351835250854492 -2 0.3541635274887085)
(0.930907130241394 -2 0.3652560114860535)
(0.9307669401168823 -2 0.3656129837036133)
(0.9306266903877258 -2 0.3659699261188507)
(0.9290745854377747 -2 0.3698924481868744)
(0.9270752668380737 -2 0.3748752176761627)
(0.9269314408302307 -2 0.3752307295799255)
(0.9267874956130981 -2 0.3755861818790436)
(0.9240262508392334 -2 0.3823291063308716)
(0.9238795042037964 -2 0.3826834261417389)
(0.9237326979637146 -2 0.3830377161502838)
(0.91560298204422 -2 0.402083545923233)
(0.9154487252235413 -2 0.4024346470832825)
(0.9113906621932983 -2 0.4115423262119293)
(0.9112327694892883 -2 0.4118918180465698)
(0.9110747575759888 -2 0.4122412204742432)
(0.9094871282577515 -2 0.4157321155071259)
(0.9093276262283325 -2 0.4160808622837067)
(0.9096464514732361 -2 0.4153833091259003)
(0.909168004989624 -2 0.4164295494556427)
(0.9090082049369812 -2 0.416778177022934)
(0.9080468416213989 -2 0.4188686907291412)
(0.9078860878944397 -2 0.4192169010639191)
(0.9077252745628357 -2 0.4195650219917297)
(0.9075643420219421 -2 0.419913113117218)
(0.9074032306671143 -2 0.4202611148357391)
(0.9072420001029968 -2 0.4206090867519379)
(0.9070805907249451 -2 0.4209569692611694)
(0.9069191217422485 -2 0.4213047921657562)
(0.906271755695343 -2 0.4226954877376556)
(0.9061095714569092 -2 0.4230430126190186)
(0.9059472680091858 -2 0.4233904778957367)
(0.9057848453521729 -2 0.4237378835678101)
(0.9056223034858704 -2 0.4240851998329163)
(0.5485355257987976 -2 0.8361272811889648)
(0.548214852809906 -2 0.8363375663757324)
(0.5298036336898804 -2 0.8481203317642212)
(0.5294783115386963 -2 0.8483234643936157)
(0.999998152256012 -2 0.001917474786750972)
(0.9999973773956299 -2 0.002300969092175364)
(0.9999940395355225 -2 0.00345145002938807)
(0.9999926686286926 -2 0.003834942588582635)
(0.9999911189079285 -2 0.004218434449285269)
(0.99998939037323 -2 0.004601926077157259)
(0.9999876022338867 -2 0.004985416773706675)
(0.998757541179657 -2 0.04983372613787651)
(0.9987383484840393 -2 0.05021674185991287)
(0.9987190365791321 -2 0.05059975013136864)
(0.9986995458602905 -2 0.0509827509522438)
(0.9986799359321594 -2 0.05136574059724808)
(0.998660147190094 -2 0.05174872651696205)
(0.9985384345054626 -2 0.05404647812247276)
(0.998517632484436 -2 0.05442940816283226)
(0.9984966516494751 -2 0.05481233075261116)
(0.9983237981796265 -2 0.05787541717290878)
(0.9983015656471252 -2 0.05825826525688171)
(0.9982791543006897 -2 0.05864110589027405)
(0.9974296689033508 -2 0.07165215164422989)
(0.9974021315574646 -2 0.07203464955091476)
(0.996112585067749 -2 0.08808957040309906)
(0.9960787296295166 -2 0.08847156912088394)
(0.9960446953773499 -2 0.08885355293750763)
(0.9960105419158936 -2 0.08923552185297012)
(0.9959762692451477 -2 0.08961748331785202)
(0.9959418177604675 -2 0.08999942988157272)
(0.9957320690155029 -2 0.09229081869125366)
(0.9956966042518616 -2 0.0926726758480072)
(0.9953708648681641 -2 0.09610871970653534)
(0.9953339099884033 -2 0.09649042785167694)
(0.9950712919235229 -2 0.0991620197892189)
(0.9950332045555115 -2 0.09954361617565155)
(0.9949949383735657 -2 0.0999252051115036)
(0.9949565529823303 -2 0.1003067716956139)
(0.9949179887771606 -2 0.1006883233785629)
(0.9948793053627014 -2 0.1010698601603508)
(0.9948405027389526 -2 0.1014513894915581)
(0.9948015213012695 -2 0.1018328964710236)
(0.9943223595619202 -2 0.1064098179340363)
(0.9942814707756042 -2 0.1067911311984062)
(0.9942404627799988 -2 0.1071724221110344)
(0.994199275970459 -2 0.107553705573082)
(0.9941579699516296 -2 0.1079349666833878)
(0.9925731420516968 -2 0.1216494143009186)
(0.9925264120101929 -2 0.1220300570130348)
(0.9924795627593994 -2 0.1224106773734093)
(0.9924325346946716 -2 0.1227912753820419)
(0.9923853278160095 -2 0.1231718584895134)
(0.9923380613327026 -2 0.1235524266958237)
(0.9922906160354614 -2 0.1239329725503922)
(0.9922429919242859 -2 0.1243135035037994)
(0.9921952486038208 -2 0.1246940195560455)
(0.9921473264694214 -2 0.1250745058059692)
(0.9920027852058411 -2 0.1262158751487732)
(0.9919543266296387 -2 0.1265963017940521)
(0.991905689239502 -2 0.1269766986370087)
(0.9917589426040649 -2 0.1281177848577499)
(0.9917097687721252 -2 0.1284981071949005)
(0.991561233997345 -2 0.1296389698982239)
(0.9915114641189575 -2 0.1300192177295685)