/*--------------------------------*- C++ -*----------------------------------*\
  =========                 |
  \\      /  F ield         | OpenFOAM: The Open Source CFD Toolbox
   \\    /   O peration     | Website:  https://openfoam.org
    \\  /    A nd           | Version:  7
     \\/     M anipulation  |
\*---------------------------------------------------------------------------*/
FoamFile
{
    version     2.0;
    format      ascii;
    class       polyBoundaryMesh;
    location    "constant/polyMesh";
    object      boundary;
}
// * * * * * * * * * * * * * * * * * * * * * * * * * * * * * * * * * * * * * //

14
(
    yMinusWall
    {
        type            patch;
        nFaces          0;
        startFace       36583;
    }
    yPlusWall
    {
        type            patch;
        nFaces          0;
        startFace       36583;
    }
    inlet
    {
        type            patch;
        nFaces          0;
        startFace       36583;
    }
    outlet
    {
        type            patch;
        nFaces          0;
        startFace       36583;
    }
    bottomWall
    {
        type            wall;
        inGroups        List<word> 1(wall);
        nFaces          593;
        startFace       36583;
    }
    topWall
    {
        type            patch;
        nFaces          0;
        startFace       37176;
    }
    greenhouse
    {
        type            wall;
        inGroups        List<word> 1(wall);
        nFaces          1841;
        startFace       37176;
    }
    procBoundary5to1
    {
        type            processor;
        inGroups        List<word> 1(processor);
        nFaces          501;
        startFace       39017;
        matchTolerance  0.0001;
        transform       unknown;
        myProcNo        5;
        neighbProcNo    1;
    }
    procBoundary5to2
    {
        type            processor;
        inGroups        List<word> 1(processor);
        nFaces          7;
        startFace       39518;
        matchTolerance  0.0001;
        transform       unknown;
        myProcNo        5;
        neighbProcNo    2;
    }
    procBoundary5to4
    {
        type            processor;
        inGroups        List<word> 1(processor);
        nFaces          384;
        startFace       39525;
        matchTolerance  0.0001;
        transform       unknown;
        myProcNo        5;
        neighbProcNo    4;
    }
    procBoundary5to6
    {
        type            processor;
        inGroups        List<word> 1(processor);
        nFaces          207;
        startFace       39909;
        matchTolerance  0.0001;
        transform       unknown;
        myProcNo        5;
        neighbProcNo    6;
    }
    procBoundary5to9
    {
        type            processor;
        inGroups        List<word> 1(processor);
        nFaces          522;
        startFace       40116;
        matchTolerance  0.0001;
        transform       unknown;
        myProcNo        5;
        neighbProcNo    9;
    }
    procBoundary5to17
    {
        type            processor;
        inGroups        List<word> 1(processor);
        nFaces          2;
        startFace       40638;
        matchTolerance  0.0001;
        transform       unknown;
        myProcNo        5;
        neighbProcNo    17;
    }
    procBoundary5to21
    {
        type            processor;
        inGroups        List<word> 1(processor);
        nFaces          600;
        startFace       40640;
        matchTolerance  0.0001;
        transform       unknown;
        myProcNo        5;
        neighbProcNo    21;
    }
)

// ************************************************************************* //
