/*--------------------------------*- C++ -*----------------------------------*\
  =========                 |
  \\      /  F ield         | OpenFOAM: The Open Source CFD Toolbox
   \\    /   O peration     | Website:  https://openfoam.org
    \\  /    A nd           | Version:  7
     \\/     M anipulation  |
\*---------------------------------------------------------------------------*/
FoamFile
{
    version     2.0;
    format      ascii;
    class       polyBoundaryMesh;
    location    "constant/polyMesh";
    object      boundary;
}
// * * * * * * * * * * * * * * * * * * * * * * * * * * * * * * * * * * * * * //

10
(
    yMinusWall
    {
        type            patch;
        nFaces          340;
        startFace       36842;
    }
    yPlusWall
    {
        type            patch;
        nFaces          0;
        startFace       37182;
    }
    inlet
    {
        type            patch;
        nFaces          323;
        startFace       37182;
    }
    outlet
    {
        type            patch;
        nFaces          0;
        startFace       37505;
    }
    bottomWall
    {
        type            wall;
        inGroups        List<word> 1(wall);
        nFaces          0;
        startFace       37505;
    }
    topWall
    {
        type            patch;
        nFaces          380;
        startFace       37505;
    }
    greenhouse
    {
        type            wall;
        inGroups        List<word> 1(wall);
        nFaces          0;
        startFace       37885;
    }
    procBoundary16to0
    {
        type            processor;
        inGroups        List<word> 1(processor);
        nFaces          1094;
        startFace       37885;
        matchTolerance  0.0001;
        transform       unknown;
        myProcNo        16;
        neighbProcNo    0;
    }
    procBoundary16to17
    {
        type            processor;
        inGroups        List<word> 1(processor);
        nFaces          838;
        startFace       38979;
        matchTolerance  0.0001;
        transform       unknown;
        myProcNo        16;
        neighbProcNo    17;
    }
    procBoundary16to20
    {
        type            processor;
        inGroups        List<word> 1(processor);
        nFaces          837;
        startFace       39817;
        matchTolerance  0.0001;
        transform       unknown;
        myProcNo        16;
        neighbProcNo    20;
    }
)

// ************************************************************************* //
