/*--------------------------------*- C++ -*----------------------------------*\
  =========                 |
  \\      /  F ield         | OpenFOAM: The Open Source CFD Toolbox
   \\    /   O peration     | Website:  https://openfoam.org
    \\  /    A nd           | Version:  7
     \\/     M anipulation  |
\*---------------------------------------------------------------------------*/
FoamFile
{
    version     2.0;
    format      ascii;
    class       polyBoundaryMesh;
    location    "constant/polyMesh";
    object      boundary;
}
// * * * * * * * * * * * * * * * * * * * * * * * * * * * * * * * * * * * * * //

10
(
    yMinusWall
    {
        type            patch;
        nFaces          0;
        startFace       36900;
    }
    yPlusWall
    {
        type            patch;
        nFaces          340;
        startFace       36900;
    }
    inlet
    {
        type            patch;
        nFaces          0;
        startFace       37240;
    }
    outlet
    {
        type            patch;
        nFaces          323;
        startFace       37240;
    }
    bottomWall
    {
        type            wall;
        inGroups        List<word> 1(wall);
        nFaces          0;
        startFace       37563;
    }
    topWall
    {
        type            patch;
        nFaces          380;
        startFace       37563;
    }
    greenhouse
    {
        type            wall;
        inGroups        List<word> 1(wall);
        nFaces          0;
        startFace       37943;
    }
    procBoundary31to15
    {
        type            processor;
        inGroups        List<word> 1(processor);
        nFaces          1042;
        startFace       37943;
        matchTolerance  0.0001;
        transform       unknown;
        myProcNo        31;
        neighbProcNo    15;
    }
    procBoundary31to27
    {
        type            processor;
        inGroups        List<word> 1(processor);
        nFaces          824;
        startFace       38985;
        matchTolerance  0.0001;
        transform       unknown;
        myProcNo        31;
        neighbProcNo    27;
    }
    procBoundary31to30
    {
        type            processor;
        inGroups        List<word> 1(processor);
        nFaces          787;
        startFace       39809;
        matchTolerance  0.0001;
        transform       unknown;
        myProcNo        31;
        neighbProcNo    30;
    }
)

// ************************************************************************* //
