/*--------------------------------*- C++ -*----------------------------------*\
  =========                 |
  \\      /  F ield         | OpenFOAM: The Open Source CFD Toolbox
   \\    /   O peration     | Website:  https://openfoam.org
    \\  /    A nd           | Version:  7
     \\/     M anipulation  |
\*---------------------------------------------------------------------------*/
FoamFile
{
    version     2.0;
    format      ascii;
    class       polyBoundaryMesh;
    location    "constant/polyMesh";
    object      boundary;
}
// * * * * * * * * * * * * * * * * * * * * * * * * * * * * * * * * * * * * * //

14
(
    yMinusWall
    {
        type            patch;
        nFaces          0;
        startFace       36641;
    }
    yPlusWall
    {
        type            patch;
        nFaces          0;
        startFace       36641;
    }
    inlet
    {
        type            patch;
        nFaces          0;
        startFace       36641;
    }
    outlet
    {
        type            patch;
        nFaces          0;
        startFace       36641;
    }
    bottomWall
    {
        type            wall;
        inGroups        List<word> 1(wall);
        nFaces          616;
        startFace       36641;
    }
    topWall
    {
        type            patch;
        nFaces          0;
        startFace       37257;
    }
    greenhouse
    {
        type            wall;
        inGroups        List<word> 1(wall);
        nFaces          1901;
        startFace       37257;
    }
    procBoundary9to4
    {
        type            processor;
        inGroups        List<word> 1(processor);
        nFaces          11;
        startFace       39158;
        matchTolerance  0.0001;
        transform       unknown;
        myProcNo        9;
        neighbProcNo    4;
    }
    procBoundary9to5
    {
        type            processor;
        inGroups        List<word> 1(processor);
        nFaces          522;
        startFace       39169;
        matchTolerance  0.0001;
        transform       unknown;
        myProcNo        9;
        neighbProcNo    5;
    }
    procBoundary9to6
    {
        type            processor;
        inGroups        List<word> 1(processor);
        nFaces          9;
        startFace       39691;
        matchTolerance  0.0001;
        transform       unknown;
        myProcNo        9;
        neighbProcNo    6;
    }
    procBoundary9to8
    {
        type            processor;
        inGroups        List<word> 1(processor);
        nFaces          353;
        startFace       39700;
        matchTolerance  0.0001;
        transform       unknown;
        myProcNo        9;
        neighbProcNo    8;
    }
    procBoundary9to10
    {
        type            processor;
        inGroups        List<word> 1(processor);
        nFaces          222;
        startFace       40053;
        matchTolerance  0.0001;
        transform       unknown;
        myProcNo        9;
        neighbProcNo    10;
    }
    procBoundary9to13
    {
        type            processor;
        inGroups        List<word> 1(processor);
        nFaces          495;
        startFace       40275;
        matchTolerance  0.0001;
        transform       unknown;
        myProcNo        9;
        neighbProcNo    13;
    }
    procBoundary9to25
    {
        type            processor;
        inGroups        List<word> 1(processor);
        nFaces          551;
        startFace       40770;
        matchTolerance  0.0001;
        transform       unknown;
        myProcNo        9;
        neighbProcNo    25;
    }
)

// ************************************************************************* //
