/*--------------------------------*- C++ -*----------------------------------*\
  =========                 |
  \\      /  F ield         | OpenFOAM: The Open Source CFD Toolbox
   \\    /   O peration     | Website:  https://openfoam.org
    \\  /    A nd           | Version:  7
     \\/     M anipulation  |
\*---------------------------------------------------------------------------*/
FoamFile
{
    version     2.0;
    format      ascii;
    class       polyBoundaryMesh;
    location    "constant/polyMesh";
    object      boundary;
}
// * * * * * * * * * * * * * * * * * * * * * * * * * * * * * * * * * * * * * //

15
(
    yMinusWall
    {
        type            patch;
        nFaces          0;
        startFace       36791;
    }
    yPlusWall
    {
        type            patch;
        nFaces          0;
        startFace       36791;
    }
    inlet
    {
        type            patch;
        nFaces          0;
        startFace       36791;
    }
    outlet
    {
        type            patch;
        nFaces          6;
        startFace       36791;
    }
    bottomWall
    {
        type            wall;
        inGroups        List<word> 1(wall);
        nFaces          990;
        startFace       36797;
    }
    topWall
    {
        type            patch;
        nFaces          0;
        startFace       37787;
    }
    greenhouse
    {
        type            wall;
        inGroups        List<word> 1(wall);
        nFaces          0;
        startFace       37787;
    }
    procBoundary11to6
    {
        type            processor;
        inGroups        List<word> 1(processor);
        nFaces          15;
        startFace       37787;
        matchTolerance  0.0001;
        transform       unknown;
        myProcNo        11;
        neighbProcNo    6;
    }
    procBoundary11to7
    {
        type            processor;
        inGroups        List<word> 1(processor);
        nFaces          736;
        startFace       37802;
        matchTolerance  0.0001;
        transform       unknown;
        myProcNo        11;
        neighbProcNo    7;
    }
    procBoundary11to10
    {
        type            processor;
        inGroups        List<word> 1(processor);
        nFaces          374;
        startFace       38538;
        matchTolerance  0.0001;
        transform       unknown;
        myProcNo        11;
        neighbProcNo    10;
    }
    procBoundary11to14
    {
        type            processor;
        inGroups        List<word> 1(processor);
        nFaces          201;
        startFace       38912;
        matchTolerance  0.0001;
        transform       unknown;
        myProcNo        11;
        neighbProcNo    14;
    }
    procBoundary11to15
    {
        type            processor;
        inGroups        List<word> 1(processor);
        nFaces          431;
        startFace       39113;
        matchTolerance  0.0001;
        transform       unknown;
        myProcNo        11;
        neighbProcNo    15;
    }
    procBoundary11to26
    {
        type            processor;
        inGroups        List<word> 1(processor);
        nFaces          186;
        startFace       39544;
        matchTolerance  0.0001;
        transform       unknown;
        myProcNo        11;
        neighbProcNo    26;
    }
    procBoundary11to27
    {
        type            processor;
        inGroups        List<word> 1(processor);
        nFaces          803;
        startFace       39730;
        matchTolerance  0.0001;
        transform       unknown;
        myProcNo        11;
        neighbProcNo    27;
    }
    procBoundary11to30
    {
        type            processor;
        inGroups        List<word> 1(processor);
        nFaces          55;
        startFace       40533;
        matchTolerance  0.0001;
        transform       unknown;
        myProcNo        11;
        neighbProcNo    30;
    }
)

// ************************************************************************* //
