/*--------------------------------*- C++ -*----------------------------------*\
  =========                 |
  \\      /  F ield         | OpenFOAM: The Open Source CFD Toolbox
   \\    /   O peration     | Website:  https://openfoam.org
    \\  /    A nd           | Version:  7
     \\/     M anipulation  |
\*---------------------------------------------------------------------------*/
FoamFile
{
    version     2.0;
    format      ascii;
    class       polyBoundaryMesh;
    location    "constant/polyMesh";
    object      boundary;
}
// * * * * * * * * * * * * * * * * * * * * * * * * * * * * * * * * * * * * * //

16
(
    yMinusWall
    {
        type            patch;
        nFaces          0;
        startFace       36310;
    }
    yPlusWall
    {
        type            patch;
        nFaces          40;
        startFace       36310;
    }
    inlet
    {
        type            patch;
        nFaces          0;
        startFace       36350;
    }
    outlet
    {
        type            patch;
        nFaces          0;
        startFace       36350;
    }
    bottomWall
    {
        type            wall;
        inGroups        List<word> 1(wall);
        nFaces          0;
        startFace       36350;
    }
    topWall
    {
        type            patch;
        nFaces          42;
        startFace       36350;
    }
    greenhouse
    {
        type            wall;
        inGroups        List<word> 1(wall);
        nFaces          0;
        startFace       36392;
    }
    procBoundary29to8
    {
        type            processor;
        inGroups        List<word> 1(processor);
        nFaces          55;
        startFace       36392;
        matchTolerance  0.0001;
        transform       unknown;
        myProcNo        29;
        neighbProcNo    8;
    }
    procBoundary29to12
    {
        type            processor;
        inGroups        List<word> 1(processor);
        nFaces          477;
        startFace       36447;
        matchTolerance  0.0001;
        transform       unknown;
        myProcNo        29;
        neighbProcNo    12;
    }
    procBoundary29to13
    {
        type            processor;
        inGroups        List<word> 1(processor);
        nFaces          787;
        startFace       36924;
        matchTolerance  0.0001;
        transform       unknown;
        myProcNo        29;
        neighbProcNo    13;
    }
    procBoundary29to14
    {
        type            processor;
        inGroups        List<word> 1(processor);
        nFaces          32;
        startFace       37711;
        matchTolerance  0.0001;
        transform       unknown;
        myProcNo        29;
        neighbProcNo    14;
    }
    procBoundary29to24
    {
        type            processor;
        inGroups        List<word> 1(processor);
        nFaces          331;
        startFace       37743;
        matchTolerance  0.0001;
        transform       unknown;
        myProcNo        29;
        neighbProcNo    24;
    }
    procBoundary29to25
    {
        type            processor;
        inGroups        List<word> 1(processor);
        nFaces          788;
        startFace       38074;
        matchTolerance  0.0001;
        transform       unknown;
        myProcNo        29;
        neighbProcNo    25;
    }
    procBoundary29to26
    {
        type            processor;
        inGroups        List<word> 1(processor);
        nFaces          16;
        startFace       38862;
        matchTolerance  0.0001;
        transform       unknown;
        myProcNo        29;
        neighbProcNo    26;
    }
    procBoundary29to28
    {
        type            processor;
        inGroups        List<word> 1(processor);
        nFaces          755;
        startFace       38878;
        matchTolerance  0.0001;
        transform       unknown;
        myProcNo        29;
        neighbProcNo    28;
    }
    procBoundary29to30
    {
        type            processor;
        inGroups        List<word> 1(processor);
        nFaces          1661;
        startFace       39633;
        matchTolerance  0.0001;
        transform       unknown;
        myProcNo        29;
        neighbProcNo    30;
    }
)

// ************************************************************************* //
