/*--------------------------------*- C++ -*----------------------------------*\
  =========                 |
  \\      /  F ield         | OpenFOAM: The Open Source CFD Toolbox
   \\    /   O peration     | Website:  https://openfoam.org
    \\  /    A nd           | Version:  7
     \\/     M anipulation  |
\*---------------------------------------------------------------------------*/
FoamFile
{
    version     2.0;
    format      ascii;
    class       polyBoundaryMesh;
    location    "constant/polyMesh";
    object      boundary;
}
// * * * * * * * * * * * * * * * * * * * * * * * * * * * * * * * * * * * * * //

15
(
    yMinusWall
    {
        type            patch;
        nFaces          0;
        startFace       36709;
    }
    yPlusWall
    {
        type            patch;
        nFaces          0;
        startFace       36709;
    }
    inlet
    {
        type            patch;
        nFaces          0;
        startFace       36709;
    }
    outlet
    {
        type            patch;
        nFaces          0;
        startFace       36709;
    }
    bottomWall
    {
        type            wall;
        inGroups        List<word> 1(wall);
        nFaces          0;
        startFace       36709;
    }
    topWall
    {
        type            patch;
        nFaces          2;
        startFace       36709;
    }
    greenhouse
    {
        type            wall;
        inGroups        List<word> 1(wall);
        nFaces          0;
        startFace       36711;
    }
    procBoundary26to10
    {
        type            processor;
        inGroups        List<word> 1(processor);
        nFaces          578;
        startFace       36711;
        matchTolerance  0.0001;
        transform       unknown;
        myProcNo        26;
        neighbProcNo    10;
    }
    procBoundary26to11
    {
        type            processor;
        inGroups        List<word> 1(processor);
        nFaces          186;
        startFace       37289;
        matchTolerance  0.0001;
        transform       unknown;
        myProcNo        26;
        neighbProcNo    11;
    }
    procBoundary26to14
    {
        type            processor;
        inGroups        List<word> 1(processor);
        nFaces          15;
        startFace       37475;
        matchTolerance  0.0001;
        transform       unknown;
        myProcNo        26;
        neighbProcNo    14;
    }
    procBoundary26to22
    {
        type            processor;
        inGroups        List<word> 1(processor);
        nFaces          893;
        startFace       37490;
        matchTolerance  0.0001;
        transform       unknown;
        myProcNo        26;
        neighbProcNo    22;
    }
    procBoundary26to25
    {
        type            processor;
        inGroups        List<word> 1(processor);
        nFaces          708;
        startFace       38383;
        matchTolerance  0.0001;
        transform       unknown;
        myProcNo        26;
        neighbProcNo    25;
    }
    procBoundary26to27
    {
        type            processor;
        inGroups        List<word> 1(processor);
        nFaces          412;
        startFace       39091;
        matchTolerance  0.0001;
        transform       unknown;
        myProcNo        26;
        neighbProcNo    27;
    }
    procBoundary26to29
    {
        type            processor;
        inGroups        List<word> 1(processor);
        nFaces          16;
        startFace       39503;
        matchTolerance  0.0001;
        transform       unknown;
        myProcNo        26;
        neighbProcNo    29;
    }
    procBoundary26to30
    {
        type            processor;
        inGroups        List<word> 1(processor);
        nFaces          746;
        startFace       39519;
        matchTolerance  0.0001;
        transform       unknown;
        myProcNo        26;
        neighbProcNo    30;
    }
)

// ************************************************************************* //
