/*--------------------------------*- C++ -*----------------------------------*\
  =========                 |
  \\      /  F ield         | OpenFOAM: The Open Source CFD Toolbox
   \\    /   O peration     | Website:  https://openfoam.org
    \\  /    A nd           | Version:  7
     \\/     M anipulation  |
\*---------------------------------------------------------------------------*/
FoamFile
{
    version     2.0;
    format      ascii;
    class       polyBoundaryMesh;
    location    "constant/polyMesh";
    object      boundary;
}
// * * * * * * * * * * * * * * * * * * * * * * * * * * * * * * * * * * * * * //

16
(
    yMinusWall
    {
        type            patch;
        nFaces          2;
        startFace       37110;
    }
    yPlusWall
    {
        type            patch;
        nFaces          0;
        startFace       37112;
    }
    inlet
    {
        type            patch;
        nFaces          0;
        startFace       37112;
    }
    outlet
    {
        type            patch;
        nFaces          0;
        startFace       37112;
    }
    bottomWall
    {
        type            wall;
        inGroups        List<word> 1(wall);
        nFaces          1071;
        startFace       37112;
    }
    topWall
    {
        type            patch;
        nFaces          0;
        startFace       38183;
    }
    greenhouse
    {
        type            wall;
        inGroups        List<word> 1(wall);
        nFaces          1001;
        startFace       38183;
    }
    procBoundary2to1
    {
        type            processor;
        inGroups        List<word> 1(processor);
        nFaces          632;
        startFace       39184;
        matchTolerance  0.0001;
        transform       unknown;
        myProcNo        2;
        neighbProcNo    1;
    }
    procBoundary2to3
    {
        type            processor;
        inGroups        List<word> 1(processor);
        nFaces          244;
        startFace       39816;
        matchTolerance  0.0001;
        transform       unknown;
        myProcNo        2;
        neighbProcNo    3;
    }
    procBoundary2to5
    {
        type            processor;
        inGroups        List<word> 1(processor);
        nFaces          7;
        startFace       40060;
        matchTolerance  0.0001;
        transform       unknown;
        myProcNo        2;
        neighbProcNo    5;
    }
    procBoundary2to6
    {
        type            processor;
        inGroups        List<word> 1(processor);
        nFaces          499;
        startFace       40067;
        matchTolerance  0.0001;
        transform       unknown;
        myProcNo        2;
        neighbProcNo    6;
    }
    procBoundary2to7
    {
        type            processor;
        inGroups        List<word> 1(processor);
        nFaces          201;
        startFace       40566;
        matchTolerance  0.0001;
        transform       unknown;
        myProcNo        2;
        neighbProcNo    7;
    }
    procBoundary2to17
    {
        type            processor;
        inGroups        List<word> 1(processor);
        nFaces          14;
        startFace       40767;
        matchTolerance  0.0001;
        transform       unknown;
        myProcNo        2;
        neighbProcNo    17;
    }
    procBoundary2to18
    {
        type            processor;
        inGroups        List<word> 1(processor);
        nFaces          783;
        startFace       40781;
        matchTolerance  0.0001;
        transform       unknown;
        myProcNo        2;
        neighbProcNo    18;
    }
    procBoundary2to21
    {
        type            processor;
        inGroups        List<word> 1(processor);
        nFaces          1;
        startFace       41564;
        matchTolerance  0.0001;
        transform       unknown;
        myProcNo        2;
        neighbProcNo    21;
    }
    procBoundary2to22
    {
        type            processor;
        inGroups        List<word> 1(processor);
        nFaces          1;
        startFace       41565;
        matchTolerance  0.0001;
        transform       unknown;
        myProcNo        2;
        neighbProcNo    22;
    }
)

// ************************************************************************* //
