/*--------------------------------*- C++ -*----------------------------------*\
  =========                 |
  \\      /  F ield         | OpenFOAM: The Open Source CFD Toolbox
   \\    /   O peration     | Website:  https://openfoam.org
    \\  /    A nd           | Version:  7
     \\/     M anipulation  |
\*---------------------------------------------------------------------------*/
FoamFile
{
    version     2.0;
    format      ascii;
    class       polyBoundaryMesh;
    location    "constant/polyMesh";
    object      boundary;
}
// * * * * * * * * * * * * * * * * * * * * * * * * * * * * * * * * * * * * * //

14
(
    yMinusWall
    {
        type            patch;
        nFaces          0;
        startFace       36699;
    }
    yPlusWall
    {
        type            patch;
        nFaces          0;
        startFace       36699;
    }
    inlet
    {
        type            patch;
        nFaces          0;
        startFace       36699;
    }
    outlet
    {
        type            patch;
        nFaces          57;
        startFace       36699;
    }
    bottomWall
    {
        type            wall;
        inGroups        List<word> 1(wall);
        nFaces          0;
        startFace       36756;
    }
    topWall
    {
        type            patch;
        nFaces          60;
        startFace       36756;
    }
    greenhouse
    {
        type            wall;
        inGroups        List<word> 1(wall);
        nFaces          0;
        startFace       36816;
    }
    procBoundary27to7
    {
        type            processor;
        inGroups        List<word> 1(processor);
        nFaces          23;
        startFace       36816;
        matchTolerance  0.0001;
        transform       unknown;
        myProcNo        27;
        neighbProcNo    7;
    }
    procBoundary27to11
    {
        type            processor;
        inGroups        List<word> 1(processor);
        nFaces          803;
        startFace       36839;
        matchTolerance  0.0001;
        transform       unknown;
        myProcNo        27;
        neighbProcNo    11;
    }
    procBoundary27to15
    {
        type            processor;
        inGroups        List<word> 1(processor);
        nFaces          441;
        startFace       37642;
        matchTolerance  0.0001;
        transform       unknown;
        myProcNo        27;
        neighbProcNo    15;
    }
    procBoundary27to23
    {
        type            processor;
        inGroups        List<word> 1(processor);
        nFaces          1331;
        startFace       38083;
        matchTolerance  0.0001;
        transform       unknown;
        myProcNo        27;
        neighbProcNo    23;
    }
    procBoundary27to26
    {
        type            processor;
        inGroups        List<word> 1(processor);
        nFaces          412;
        startFace       39414;
        matchTolerance  0.0001;
        transform       unknown;
        myProcNo        27;
        neighbProcNo    26;
    }
    procBoundary27to30
    {
        type            processor;
        inGroups        List<word> 1(processor);
        nFaces          315;
        startFace       39826;
        matchTolerance  0.0001;
        transform       unknown;
        myProcNo        27;
        neighbProcNo    30;
    }
    procBoundary27to31
    {
        type            processor;
        inGroups        List<word> 1(processor);
        nFaces          824;
        startFace       40141;
        matchTolerance  0.0001;
        transform       unknown;
        myProcNo        27;
        neighbProcNo    31;
    }
)

// ************************************************************************* //
