/*--------------------------------*- C++ -*----------------------------------*\
  =========                 |
  \\      /  F ield         | OpenFOAM: The Open Source CFD Toolbox
   \\    /   O peration     | Website:  https://openfoam.org
    \\  /    A nd           | Version:  7
     \\/     M anipulation  |
\*---------------------------------------------------------------------------*/
FoamFile
{
    version     2.0;
    format      ascii;
    class       polyBoundaryMesh;
    location    "constant/polyMesh";
    object      boundary;
}
// * * * * * * * * * * * * * * * * * * * * * * * * * * * * * * * * * * * * * //

16
(
    yMinusWall
    {
        type            patch;
        nFaces          0;
        startFace       36648;
    }
    yPlusWall
    {
        type            patch;
        nFaces          0;
        startFace       36648;
    }
    inlet
    {
        type            patch;
        nFaces          0;
        startFace       36648;
    }
    outlet
    {
        type            patch;
        nFaces          0;
        startFace       36648;
    }
    bottomWall
    {
        type            wall;
        inGroups        List<word> 1(wall);
        nFaces          0;
        startFace       36648;
    }
    topWall
    {
        type            patch;
        nFaces          2;
        startFace       36648;
    }
    greenhouse
    {
        type            wall;
        inGroups        List<word> 1(wall);
        nFaces          0;
        startFace       36650;
    }
    procBoundary22to2
    {
        type            processor;
        inGroups        List<word> 1(processor);
        nFaces          1;
        startFace       36650;
        matchTolerance  0.0001;
        transform       unknown;
        myProcNo        22;
        neighbProcNo    2;
    }
    procBoundary22to6
    {
        type            processor;
        inGroups        List<word> 1(processor);
        nFaces          587;
        startFace       36651;
        matchTolerance  0.0001;
        transform       unknown;
        myProcNo        22;
        neighbProcNo    6;
    }
    procBoundary22to7
    {
        type            processor;
        inGroups        List<word> 1(processor);
        nFaces          212;
        startFace       37238;
        matchTolerance  0.0001;
        transform       unknown;
        myProcNo        22;
        neighbProcNo    7;
    }
    procBoundary22to10
    {
        type            processor;
        inGroups        List<word> 1(processor);
        nFaces          20;
        startFace       37450;
        matchTolerance  0.0001;
        transform       unknown;
        myProcNo        22;
        neighbProcNo    10;
    }
    procBoundary22to18
    {
        type            processor;
        inGroups        List<word> 1(processor);
        nFaces          806;
        startFace       37470;
        matchTolerance  0.0001;
        transform       unknown;
        myProcNo        22;
        neighbProcNo    18;
    }
    procBoundary22to21
    {
        type            processor;
        inGroups        List<word> 1(processor);
        nFaces          713;
        startFace       38276;
        matchTolerance  0.0001;
        transform       unknown;
        myProcNo        22;
        neighbProcNo    21;
    }
    procBoundary22to23
    {
        type            processor;
        inGroups        List<word> 1(processor);
        nFaces          398;
        startFace       38989;
        matchTolerance  0.0001;
        transform       unknown;
        myProcNo        22;
        neighbProcNo    23;
    }
    procBoundary22to25
    {
        type            processor;
        inGroups        List<word> 1(processor);
        nFaces          10;
        startFace       39387;
        matchTolerance  0.0001;
        transform       unknown;
        myProcNo        22;
        neighbProcNo    25;
    }
    procBoundary22to26
    {
        type            processor;
        inGroups        List<word> 1(processor);
        nFaces          893;
        startFace       39397;
        matchTolerance  0.0001;
        transform       unknown;
        myProcNo        22;
        neighbProcNo    26;
    }
)

// ************************************************************************* //
