/*--------------------------------*- C++ -*----------------------------------*\
  =========                 |
  \\      /  F ield         | OpenFOAM: The Open Source CFD Toolbox
   \\    /   O peration     | Website:  https://openfoam.org
    \\  /    A nd           | Version:  7
     \\/     M anipulation  |
\*---------------------------------------------------------------------------*/
FoamFile
{
    version     2.0;
    format      ascii;
    class       polyBoundaryMesh;
    location    "constant/polyMesh";
    object      boundary;
}
// * * * * * * * * * * * * * * * * * * * * * * * * * * * * * * * * * * * * * //

12
(
    yMinusWall
    {
        type            patch;
        nFaces          0;
        startFace       36844;
    }
    yPlusWall
    {
        type            patch;
        nFaces          80;
        startFace       36844;
    }
    inlet
    {
        type            patch;
        nFaces          76;
        startFace       36924;
    }
    outlet
    {
        type            patch;
        nFaces          0;
        startFace       37000;
    }
    bottomWall
    {
        type            wall;
        inGroups        List<word> 1(wall);
        nFaces          1185;
        startFace       37000;
    }
    topWall
    {
        type            patch;
        nFaces          0;
        startFace       38185;
    }
    greenhouse
    {
        type            wall;
        inGroups        List<word> 1(wall);
        nFaces          0;
        startFace       38185;
    }
    procBoundary12to8
    {
        type            processor;
        inGroups        List<word> 1(processor);
        nFaces          443;
        startFace       38185;
        matchTolerance  0.0001;
        transform       unknown;
        myProcNo        12;
        neighbProcNo    8;
    }
    procBoundary12to13
    {
        type            processor;
        inGroups        List<word> 1(processor);
        nFaces          240;
        startFace       38628;
        matchTolerance  0.0001;
        transform       unknown;
        myProcNo        12;
        neighbProcNo    13;
    }
    procBoundary12to24
    {
        type            processor;
        inGroups        List<word> 1(processor);
        nFaces          445;
        startFace       38868;
        matchTolerance  0.0001;
        transform       unknown;
        myProcNo        12;
        neighbProcNo    24;
    }
    procBoundary12to28
    {
        type            processor;
        inGroups        List<word> 1(processor);
        nFaces          1042;
        startFace       39313;
        matchTolerance  0.0001;
        transform       unknown;
        myProcNo        12;
        neighbProcNo    28;
    }
    procBoundary12to29
    {
        type            processor;
        inGroups        List<word> 1(processor);
        nFaces          477;
        startFace       40355;
        matchTolerance  0.0001;
        transform       unknown;
        myProcNo        12;
        neighbProcNo    29;
    }
)

// ************************************************************************* //
