/*--------------------------------*- C++ -*----------------------------------*\
  =========                 |
  \\      /  F ield         | OpenFOAM: The Open Source CFD Toolbox
   \\    /   O peration     | Website:  https://openfoam.org
    \\  /    A nd           | Version:  7
     \\/     M anipulation  |
\*---------------------------------------------------------------------------*/
FoamFile
{
    version     2.0;
    format      ascii;
    class       polyBoundaryMesh;
    location    "constant/polyMesh";
    object      boundary;
}
// * * * * * * * * * * * * * * * * * * * * * * * * * * * * * * * * * * * * * //

15
(
    yMinusWall
    {
        type            patch;
        nFaces          0;
        startFace       36631;
    }
    yPlusWall
    {
        type            patch;
        nFaces          0;
        startFace       36631;
    }
    inlet
    {
        type            patch;
        nFaces          0;
        startFace       36631;
    }
    outlet
    {
        type            patch;
        nFaces          0;
        startFace       36631;
    }
    bottomWall
    {
        type            wall;
        inGroups        List<word> 1(wall);
        nFaces          603;
        startFace       36631;
    }
    topWall
    {
        type            patch;
        nFaces          0;
        startFace       37234;
    }
    greenhouse
    {
        type            wall;
        inGroups        List<word> 1(wall);
        nFaces          1815;
        startFace       37234;
    }
    procBoundary10to6
    {
        type            processor;
        inGroups        List<word> 1(processor);
        nFaces          476;
        startFace       39049;
        matchTolerance  0.0001;
        transform       unknown;
        myProcNo        10;
        neighbProcNo    6;
    }
    procBoundary10to9
    {
        type            processor;
        inGroups        List<word> 1(processor);
        nFaces          222;
        startFace       39525;
        matchTolerance  0.0001;
        transform       unknown;
        myProcNo        10;
        neighbProcNo    9;
    }
    procBoundary10to11
    {
        type            processor;
        inGroups        List<word> 1(processor);
        nFaces          374;
        startFace       39747;
        matchTolerance  0.0001;
        transform       unknown;
        myProcNo        10;
        neighbProcNo    11;
    }
    procBoundary10to13
    {
        type            processor;
        inGroups        List<word> 1(processor);
        nFaces          8;
        startFace       40121;
        matchTolerance  0.0001;
        transform       unknown;
        myProcNo        10;
        neighbProcNo    13;
    }
    procBoundary10to14
    {
        type            processor;
        inGroups        List<word> 1(processor);
        nFaces          473;
        startFace       40129;
        matchTolerance  0.0001;
        transform       unknown;
        myProcNo        10;
        neighbProcNo    14;
    }
    procBoundary10to22
    {
        type            processor;
        inGroups        List<word> 1(processor);
        nFaces          20;
        startFace       40602;
        matchTolerance  0.0001;
        transform       unknown;
        myProcNo        10;
        neighbProcNo    22;
    }
    procBoundary10to25
    {
        type            processor;
        inGroups        List<word> 1(processor);
        nFaces          3;
        startFace       40622;
        matchTolerance  0.0001;
        transform       unknown;
        myProcNo        10;
        neighbProcNo    25;
    }
    procBoundary10to26
    {
        type            processor;
        inGroups        List<word> 1(processor);
        nFaces          578;
        startFace       40625;
        matchTolerance  0.0001;
        transform       unknown;
        myProcNo        10;
        neighbProcNo    26;
    }
)

// ************************************************************************* //
