/*--------------------------------*- C++ -*----------------------------------*\
  =========                 |
  \\      /  F ield         | OpenFOAM: The Open Source CFD Toolbox
   \\    /   O peration     | Website:  https://openfoam.org
    \\  /    A nd           | Version:  7
     \\/     M anipulation  |
\*---------------------------------------------------------------------------*/
FoamFile
{
    version     2.0;
    format      ascii;
    class       polyBoundaryMesh;
    location    "constant/polyMesh";
    object      boundary;
}
// * * * * * * * * * * * * * * * * * * * * * * * * * * * * * * * * * * * * * //

15
(
    yMinusWall
    {
        type            patch;
        nFaces          0;
        startFace       36665;
    }
    yPlusWall
    {
        type            patch;
        nFaces          0;
        startFace       36665;
    }
    inlet
    {
        type            patch;
        nFaces          57;
        startFace       36665;
    }
    outlet
    {
        type            patch;
        nFaces          0;
        startFace       36722;
    }
    bottomWall
    {
        type            wall;
        inGroups        List<word> 1(wall);
        nFaces          0;
        startFace       36722;
    }
    topWall
    {
        type            patch;
        nFaces          60;
        startFace       36722;
    }
    greenhouse
    {
        type            wall;
        inGroups        List<word> 1(wall);
        nFaces          0;
        startFace       36782;
    }
    procBoundary20to0
    {
        type            processor;
        inGroups        List<word> 1(processor);
        nFaces          418;
        startFace       36782;
        matchTolerance  0.0001;
        transform       unknown;
        myProcNo        20;
        neighbProcNo    0;
    }
    procBoundary20to4
    {
        type            processor;
        inGroups        List<word> 1(processor);
        nFaces          800;
        startFace       37200;
        matchTolerance  0.0001;
        transform       unknown;
        myProcNo        20;
        neighbProcNo    4;
    }
    procBoundary20to8
    {
        type            processor;
        inGroups        List<word> 1(processor);
        nFaces          49;
        startFace       38000;
        matchTolerance  0.0001;
        transform       unknown;
        myProcNo        20;
        neighbProcNo    8;
    }
    procBoundary20to16
    {
        type            processor;
        inGroups        List<word> 1(processor);
        nFaces          837;
        startFace       38049;
        matchTolerance  0.0001;
        transform       unknown;
        myProcNo        20;
        neighbProcNo    16;
    }
    procBoundary20to17
    {
        type            processor;
        inGroups        List<word> 1(processor);
        nFaces          333;
        startFace       38886;
        matchTolerance  0.0001;
        transform       unknown;
        myProcNo        20;
        neighbProcNo    17;
    }
    procBoundary20to21
    {
        type            processor;
        inGroups        List<word> 1(processor);
        nFaces          430;
        startFace       39219;
        matchTolerance  0.0001;
        transform       unknown;
        myProcNo        20;
        neighbProcNo    21;
    }
    procBoundary20to24
    {
        type            processor;
        inGroups        List<word> 1(processor);
        nFaces          1321;
        startFace       39649;
        matchTolerance  0.0001;
        transform       unknown;
        myProcNo        20;
        neighbProcNo    24;
    }
    procBoundary20to25
    {
        type            processor;
        inGroups        List<word> 1(processor);
        nFaces          5;
        startFace       40970;
        matchTolerance  0.0001;
        transform       unknown;
        myProcNo        20;
        neighbProcNo    25;
    }
)

// ************************************************************************* //
