/*--------------------------------*- C++ -*----------------------------------*\
  =========                 |
  \\      /  F ield         | OpenFOAM: The Open Source CFD Toolbox
   \\    /   O peration     | Website:  https://openfoam.org
    \\  /    A nd           | Version:  7
     \\/     M anipulation  |
\*---------------------------------------------------------------------------*/
FoamFile
{
    version     2.0;
    format      ascii;
    class       polyBoundaryMesh;
    location    "constant/polyMesh";
    object      boundary;
}
// * * * * * * * * * * * * * * * * * * * * * * * * * * * * * * * * * * * * * //

15
(
    yMinusWall
    {
        type            patch;
        nFaces          0;
        startFace       36622;
    }
    yPlusWall
    {
        type            patch;
        nFaces          0;
        startFace       36622;
    }
    inlet
    {
        type            patch;
        nFaces          0;
        startFace       36622;
    }
    outlet
    {
        type            patch;
        nFaces          0;
        startFace       36622;
    }
    bottomWall
    {
        type            wall;
        inGroups        List<word> 1(wall);
        nFaces          616;
        startFace       36622;
    }
    topWall
    {
        type            patch;
        nFaces          0;
        startFace       37238;
    }
    greenhouse
    {
        type            wall;
        inGroups        List<word> 1(wall);
        nFaces          1892;
        startFace       37238;
    }
    procBoundary6to2
    {
        type            processor;
        inGroups        List<word> 1(processor);
        nFaces          499;
        startFace       39130;
        matchTolerance  0.0001;
        transform       unknown;
        myProcNo        6;
        neighbProcNo    2;
    }
    procBoundary6to5
    {
        type            processor;
        inGroups        List<word> 1(processor);
        nFaces          207;
        startFace       39629;
        matchTolerance  0.0001;
        transform       unknown;
        myProcNo        6;
        neighbProcNo    5;
    }
    procBoundary6to7
    {
        type            processor;
        inGroups        List<word> 1(processor);
        nFaces          342;
        startFace       39836;
        matchTolerance  0.0001;
        transform       unknown;
        myProcNo        6;
        neighbProcNo    7;
    }
    procBoundary6to9
    {
        type            processor;
        inGroups        List<word> 1(processor);
        nFaces          9;
        startFace       40178;
        matchTolerance  0.0001;
        transform       unknown;
        myProcNo        6;
        neighbProcNo    9;
    }
    procBoundary6to10
    {
        type            processor;
        inGroups        List<word> 1(processor);
        nFaces          476;
        startFace       40187;
        matchTolerance  0.0001;
        transform       unknown;
        myProcNo        6;
        neighbProcNo    10;
    }
    procBoundary6to11
    {
        type            processor;
        inGroups        List<word> 1(processor);
        nFaces          15;
        startFace       40663;
        matchTolerance  0.0001;
        transform       unknown;
        myProcNo        6;
        neighbProcNo    11;
    }
    procBoundary6to18
    {
        type            processor;
        inGroups        List<word> 1(processor);
        nFaces          2;
        startFace       40678;
        matchTolerance  0.0001;
        transform       unknown;
        myProcNo        6;
        neighbProcNo    18;
    }
    procBoundary6to22
    {
        type            processor;
        inGroups        List<word> 1(processor);
        nFaces          587;
        startFace       40680;
        matchTolerance  0.0001;
        transform       unknown;
        myProcNo        6;
        neighbProcNo    22;
    }
)

// ************************************************************************* //
