/*--------------------------------*- C++ -*----------------------------------*\
  =========                 |
  \\      /  F ield         | OpenFOAM: The Open Source CFD Toolbox
   \\    /   O peration     | Website:  https://openfoam.org
    \\  /    A nd           | Version:  7
     \\/     M anipulation  |
\*---------------------------------------------------------------------------*/
FoamFile
{
    version     2.0;
    format      ascii;
    class       polyBoundaryMesh;
    location    "constant/polyMesh";
    object      boundary;
}
// * * * * * * * * * * * * * * * * * * * * * * * * * * * * * * * * * * * * * //

12
(
    yMinusWall
    {
        type            patch;
        nFaces          80;
        startFace       36833;
    }
    yPlusWall
    {
        type            patch;
        nFaces          0;
        startFace       36913;
    }
    inlet
    {
        type            patch;
        nFaces          76;
        startFace       36913;
    }
    outlet
    {
        type            patch;
        nFaces          0;
        startFace       36989;
    }
    bottomWall
    {
        type            wall;
        inGroups        List<word> 1(wall);
        nFaces          1175;
        startFace       36989;
    }
    topWall
    {
        type            patch;
        nFaces          0;
        startFace       38164;
    }
    greenhouse
    {
        type            wall;
        inGroups        List<word> 1(wall);
        nFaces          0;
        startFace       38164;
    }
    procBoundary0to1
    {
        type            processor;
        inGroups        List<word> 1(processor);
        nFaces          257;
        startFace       38164;
        matchTolerance  0.0001;
        transform       unknown;
        myProcNo        0;
        neighbProcNo    1;
    }
    procBoundary0to4
    {
        type            processor;
        inGroups        List<word> 1(processor);
        nFaces          418;
        startFace       38421;
        matchTolerance  0.0001;
        transform       unknown;
        myProcNo        0;
        neighbProcNo    4;
    }
    procBoundary0to16
    {
        type            processor;
        inGroups        List<word> 1(processor);
        nFaces          1094;
        startFace       38839;
        matchTolerance  0.0001;
        transform       unknown;
        myProcNo        0;
        neighbProcNo    16;
    }
    procBoundary0to17
    {
        type            processor;
        inGroups        List<word> 1(processor);
        nFaces          510;
        startFace       39933;
        matchTolerance  0.0001;
        transform       unknown;
        myProcNo        0;
        neighbProcNo    17;
    }
    procBoundary0to20
    {
        type            processor;
        inGroups        List<word> 1(processor);
        nFaces          418;
        startFace       40443;
        matchTolerance  0.0001;
        transform       unknown;
        myProcNo        0;
        neighbProcNo    20;
    }
)

// ************************************************************************* //
