/*--------------------------------*- C++ -*----------------------------------*\
  =========                 |
  \\      /  F ield         | OpenFOAM: The Open Source CFD Toolbox
   \\    /   O peration     | Website:  https://openfoam.org
    \\  /    A nd           | Version:  7
     \\/     M anipulation  |
\*---------------------------------------------------------------------------*/
FoamFile
{
    version     2.0;
    format      ascii;
    class       polyBoundaryMesh;
    location    "constant/polyMesh";
    object      boundary;
}
// * * * * * * * * * * * * * * * * * * * * * * * * * * * * * * * * * * * * * //

14
(
    yMinusWall
    {
        type            patch;
        nFaces          0;
        startFace       36327;
    }
    yPlusWall
    {
        type            patch;
        nFaces          40;
        startFace       36327;
    }
    inlet
    {
        type            patch;
        nFaces          0;
        startFace       36367;
    }
    outlet
    {
        type            patch;
        nFaces          0;
        startFace       36367;
    }
    bottomWall
    {
        type            wall;
        inGroups        List<word> 1(wall);
        nFaces          0;
        startFace       36367;
    }
    topWall
    {
        type            patch;
        nFaces          42;
        startFace       36367;
    }
    greenhouse
    {
        type            wall;
        inGroups        List<word> 1(wall);
        nFaces          0;
        startFace       36409;
    }
    procBoundary30to11
    {
        type            processor;
        inGroups        List<word> 1(processor);
        nFaces          55;
        startFace       36409;
        matchTolerance  0.0001;
        transform       unknown;
        myProcNo        30;
        neighbProcNo    11;
    }
    procBoundary30to14
    {
        type            processor;
        inGroups        List<word> 1(processor);
        nFaces          810;
        startFace       36464;
        matchTolerance  0.0001;
        transform       unknown;
        myProcNo        30;
        neighbProcNo    14;
    }
    procBoundary30to15
    {
        type            processor;
        inGroups        List<word> 1(processor);
        nFaces          503;
        startFace       37274;
        matchTolerance  0.0001;
        transform       unknown;
        myProcNo        30;
        neighbProcNo    15;
    }
    procBoundary30to26
    {
        type            processor;
        inGroups        List<word> 1(processor);
        nFaces          746;
        startFace       37777;
        matchTolerance  0.0001;
        transform       unknown;
        myProcNo        30;
        neighbProcNo    26;
    }
    procBoundary30to27
    {
        type            processor;
        inGroups        List<word> 1(processor);
        nFaces          315;
        startFace       38523;
        matchTolerance  0.0001;
        transform       unknown;
        myProcNo        30;
        neighbProcNo    27;
    }
    procBoundary30to29
    {
        type            processor;
        inGroups        List<word> 1(processor);
        nFaces          1661;
        startFace       38838;
        matchTolerance  0.0001;
        transform       unknown;
        myProcNo        30;
        neighbProcNo    29;
    }
    procBoundary30to31
    {
        type            processor;
        inGroups        List<word> 1(processor);
        nFaces          787;
        startFace       40499;
        matchTolerance  0.0001;
        transform       unknown;
        myProcNo        30;
        neighbProcNo    31;
    }
)

// ************************************************************************* //
