/*--------------------------------*- C++ -*----------------------------------*\
  =========                 |
  \\      /  F ield         | OpenFOAM: The Open Source CFD Toolbox
   \\    /   O peration     | Website:  https://openfoam.org
    \\  /    A nd           | Version:  7
     \\/     M anipulation  |
\*---------------------------------------------------------------------------*/
FoamFile
{
    version     2.0;
    format      ascii;
    class       polyBoundaryMesh;
    location    "constant/polyMesh";
    object      boundary;
}
// * * * * * * * * * * * * * * * * * * * * * * * * * * * * * * * * * * * * * //

18
(
    yMinusWall
    {
        type            patch;
        nFaces          0;
        startFace       36680;
    }
    yPlusWall
    {
        type            patch;
        nFaces          0;
        startFace       36680;
    }
    inlet
    {
        type            patch;
        nFaces          0;
        startFace       36680;
    }
    outlet
    {
        type            patch;
        nFaces          0;
        startFace       36680;
    }
    bottomWall
    {
        type            wall;
        inGroups        List<word> 1(wall);
        nFaces          0;
        startFace       36680;
    }
    topWall
    {
        type            patch;
        nFaces          2;
        startFace       36680;
    }
    greenhouse
    {
        type            wall;
        inGroups        List<word> 1(wall);
        nFaces          0;
        startFace       36682;
    }
    procBoundary25to4
    {
        type            processor;
        inGroups        List<word> 1(processor);
        nFaces          8;
        startFace       36682;
        matchTolerance  0.0001;
        transform       unknown;
        myProcNo        25;
        neighbProcNo    4;
    }
    procBoundary25to8
    {
        type            processor;
        inGroups        List<word> 1(processor);
        nFaces          197;
        startFace       36690;
        matchTolerance  0.0001;
        transform       unknown;
        myProcNo        25;
        neighbProcNo    8;
    }
    procBoundary25to9
    {
        type            processor;
        inGroups        List<word> 1(processor);
        nFaces          551;
        startFace       36887;
        matchTolerance  0.0001;
        transform       unknown;
        myProcNo        25;
        neighbProcNo    9;
    }
    procBoundary25to10
    {
        type            processor;
        inGroups        List<word> 1(processor);
        nFaces          3;
        startFace       37438;
        matchTolerance  0.0001;
        transform       unknown;
        myProcNo        25;
        neighbProcNo    10;
    }
    procBoundary25to13
    {
        type            processor;
        inGroups        List<word> 1(processor);
        nFaces          2;
        startFace       37441;
        matchTolerance  0.0001;
        transform       unknown;
        myProcNo        25;
        neighbProcNo    13;
    }
    procBoundary25to20
    {
        type            processor;
        inGroups        List<word> 1(processor);
        nFaces          5;
        startFace       37443;
        matchTolerance  0.0001;
        transform       unknown;
        myProcNo        25;
        neighbProcNo    20;
    }
    procBoundary25to21
    {
        type            processor;
        inGroups        List<word> 1(processor);
        nFaces          852;
        startFace       37448;
        matchTolerance  0.0001;
        transform       unknown;
        myProcNo        25;
        neighbProcNo    21;
    }
    procBoundary25to22
    {
        type            processor;
        inGroups        List<word> 1(processor);
        nFaces          10;
        startFace       38300;
        matchTolerance  0.0001;
        transform       unknown;
        myProcNo        25;
        neighbProcNo    22;
    }
    procBoundary25to24
    {
        type            processor;
        inGroups        List<word> 1(processor);
        nFaces          386;
        startFace       38310;
        matchTolerance  0.0001;
        transform       unknown;
        myProcNo        25;
        neighbProcNo    24;
    }
    procBoundary25to26
    {
        type            processor;
        inGroups        List<word> 1(processor);
        nFaces          708;
        startFace       38696;
        matchTolerance  0.0001;
        transform       unknown;
        myProcNo        25;
        neighbProcNo    26;
    }
    procBoundary25to29
    {
        type            processor;
        inGroups        List<word> 1(processor);
        nFaces          788;
        startFace       39404;
        matchTolerance  0.0001;
        transform       unknown;
        myProcNo        25;
        neighbProcNo    29;
    }
)

// ************************************************************************* //
